<?xml version="1.0"?>
<!-- generated on 2018-01-01 11:39:39.158552 by $Id: randomTrips.py 23999 2017-04-21 09:04:47Z behrisch $
  options: <doubleminus>fringe-factor 5 <doubleminus>prefix pas <doubleminus>vehicle-class passenger -n /media/jefferson/Dados/workspace/GoodsTracker/vanet/sp/place/osm.net.xml -r /media/jefferson/Dados/workspace/GoodsTracker/vanet/sp/place/osm.passenger.rou.xml -p 0.16 -e 3600 -o /media/jefferson/Dados/workspace/GoodsTracker/vanet/sp/place/osm.passenger.trips.xml
-->
<routes xmlns:xsi="http://www.w3.org/2001/XMLSchema-instance" xsi:noNamespaceSchemaLocation="http://sumo.dlr.de/xsd/routes_file.xsd">
    <vType id="passenger" vClass="passenger" />
    <trip id="pas0" depart="0.00" from="4734488" to="4902416#2" type="passenger"/>
    <trip id="pas1" depart="0.16" from="27490679#0" to="4734475#6" type="passenger"/>
    <trip id="pas2" depart="0.32" from="28788368#0" to="327761947" type="passenger"/>
    <trip id="pas3" depart="0.48" from="549928648#0" to="549928646#0" type="passenger"/>
    <trip id="pas4" depart="0.64" from="548651990#0" to="-27467655#0" type="passenger"/>
    <trip id="pas5" depart="0.80" from="162043157#0" to="27840840#3" type="passenger"/>
    <trip id="pas6" depart="0.96" from="-221893214#1" to="27570528#0" type="passenger"/>
    <trip id="pas7" depart="1.12" from="229481708#1" to="401773369" type="passenger"/>
    <trip id="pas8" depart="1.28" from="4902374#1" to="473691604#1" type="passenger"/>
    <trip id="pas9" depart="1.44" from="-221893215#0" to="-327764057#1" type="passenger"/>
    <trip id="pas10" depart="1.60" from="473684643" to="221893225" type="passenger"/>
    <trip id="pas11" depart="1.76" from="28885040#2" to="-28788361#2" type="passenger"/>
    <trip id="pas12" depart="1.92" from="161392067" to="327764059#1" type="passenger"/>
    <trip id="pas13" depart="2.08" from="249697090#4" to="4559074#5" type="passenger"/>
    <trip id="pas14" depart="2.24" from="-162043156" to="-221893217#5" type="passenger"/>
    <trip id="pas15" depart="2.40" from="-28788366" to="28788382#1" type="passenger"/>
    <trip id="pas16" depart="2.56" from="-490522132" to="319453545#1" type="passenger"/>
    <trip id="pas17" depart="2.72" from="-341224416" to="27570528#1" type="passenger"/>
    <trip id="pas18" depart="2.88" from="-4902394#3" to="-28788370#0" type="passenger"/>
    <trip id="pas19" depart="3.04" from="-518474788" to="-386278913#0" type="passenger"/>
    <trip id="pas20" depart="3.20" from="-27467656" to="4902394#4" type="passenger"/>
    <trip id="pas21" depart="3.36" from="-4902436#1" to="247833369#0" type="passenger"/>
    <trip id="pas22" depart="3.52" from="27803780#1" to="4902440#0" type="passenger"/>
    <trip id="pas23" depart="3.68" from="-473691590#0" to="-473684643" type="passenger"/>
    <trip id="pas24" depart="3.84" from="-4902436#1" to="229481708#2" type="passenger"/>
    <trip id="pas25" depart="4.00" from="28788365#0" to="-473691590#0" type="passenger"/>
    <trip id="pas26" depart="4.16" from="340955661" to="473691590#1" type="passenger"/>
    <trip id="pas27" depart="4.32" from="327764057#2" to="221893225" type="passenger"/>
    <trip id="pas28" depart="4.48" from="548651990#1" to="-162043157#1" type="passenger"/>
    <trip id="pas29" depart="4.64" from="-28885040#2" to="327764057#2" type="passenger"/>
    <trip id="pas30" depart="4.80" from="39368522#1" to="-221893219#0" type="passenger"/>
    <trip id="pas31" depart="4.96" from="-511815820" to="548651990#1" type="passenger"/>
    <trip id="pas32" depart="5.12" from="4902436#0" to="341224412" type="passenger"/>
    <trip id="pas33" depart="5.28" from="-28788371#0" to="-28788370#1" type="passenger"/>
    <trip id="pas34" depart="5.44" from="-341224412" to="-28788361#0" type="passenger"/>
    <trip id="pas35" depart="5.60" from="39368522#2" to="4902378#0" type="passenger"/>
    <trip id="pas36" depart="5.76" from="-340955664" to="-28788365#0" type="passenger"/>
    <trip id="pas37" depart="5.92" from="-39368522#2" to="-28885074#0" type="passenger"/>
    <trip id="pas38" depart="6.08" from="402922224" to="28788371#0" type="passenger"/>
    <trip id="pas39" depart="6.24" from="247833369#0" to="221893235" type="passenger"/>
    <trip id="pas40" depart="6.40" from="327761948#0" to="-221893285#0" type="passenger"/>
    <trip id="pas41" depart="6.56" from="-221893215#0" to="4902440#0" type="passenger"/>
    <trip id="pas42" depart="6.72" from="-4902451#1" to="161392069#1" type="passenger"/>
    <trip id="pas43" depart="6.88" from="-221893235" to="249697090#3" type="passenger"/>
    <trip id="pas44" depart="7.04" from="-518474788" to="161389765" type="passenger"/>
    <trip id="pas45" depart="7.20" from="-340955667" to="4902394#6" type="passenger"/>
    <trip id="pas46" depart="7.36" from="4806303" to="-548651990#1" type="passenger"/>
    <trip id="pas47" depart="7.52" from="4559381" to="4902394#3" type="passenger"/>
    <trip id="pas48" depart="7.68" from="-549928648#2" to="15968349" type="passenger"/>
    <trip id="pas49" depart="7.84" from="-340955664" to="4902440#0" type="passenger"/>
    <trip id="pas50" depart="8.00" from="4328546#0" to="549928642#0" type="passenger"/>
    <trip id="pas51" depart="8.16" from="340955661" to="549917967" type="passenger"/>
    <trip id="pas52" depart="8.32" from="-221893215#0" to="-27840841#1" type="passenger"/>
    <trip id="pas53" depart="8.48" from="-473691601#1" to="386278897" type="passenger"/>
    <trip id="pas54" depart="8.64" from="161392069#1" to="4902394#3" type="passenger"/>
    <trip id="pas55" depart="8.80" from="27467655#0" to="15968349" type="passenger"/>
    <trip id="pas56" depart="8.96" from="4734475#3" to="4559074#5" type="passenger"/>
    <trip id="pas57" depart="9.12" from="28788361#2" to="-221893232" type="passenger"/>
    <trip id="pas58" depart="9.28" from="4734490" to="-221893237" type="passenger"/>
    <trip id="pas59" depart="9.44" from="4734475#5" to="-386278913#1" type="passenger"/>
    <trip id="pas60" depart="9.60" from="221893232" to="-28788374" type="passenger"/>
    <trip id="pas61" depart="9.76" from="-327764057#1" to="473691601#1" type="passenger"/>
    <trip id="pas62" depart="9.92" from="-27840841#0" to="327956373#1" type="passenger"/>
    <trip id="pas63" depart="10.08" from="-27840840#4" to="4328546#1" type="passenger"/>
    <trip id="pas64" depart="10.24" from="28885070#0" to="4734476#0" type="passenger"/>
    <trip id="pas65" depart="10.40" from="-179109642#1" to="386278913#2" type="passenger"/>
    <trip id="pas66" depart="10.56" from="229481708#2" to="-249697087" type="passenger"/>
    <trip id="pas67" depart="10.72" from="-28885040#1" to="39368522#5" type="passenger"/>
    <trip id="pas68" depart="10.88" from="-473691601#0" to="249697090#0" type="passenger"/>
    <trip id="pas69" depart="11.04" from="327764057#0" to="27490679#1" type="passenger"/>
    <trip id="pas70" depart="11.20" from="27840841#1" to="4734488" type="passenger"/>
    <trip id="pas71" depart="11.36" from="-473691601#1" to="28885070#1" type="passenger"/>
    <trip id="pas72" depart="11.52" from="27490679#0" to="475330829" type="passenger"/>
    <trip id="pas73" depart="11.68" from="-162043156" to="327956372" type="passenger"/>
    <trip id="pas74" depart="11.84" from="28885070#2" to="221893217#0" type="passenger"/>
    <trip id="pas75" depart="12.00" from="4328546#0" to="-4902436#0" type="passenger"/>
    <trip id="pas76" depart="12.16" from="-341224412" to="-473691590#1" type="passenger"/>
    <trip id="pas77" depart="12.32" from="549928648#2" to="96097794" type="passenger"/>
    <trip id="pas78" depart="12.48" from="221893232" to="-487551846#0" type="passenger"/>
    <trip id="pas79" depart="12.64" from="-511815818" to="475330829" type="passenger"/>
    <trip id="pas80" depart="12.80" from="27840838#0" to="-221893219#0" type="passenger"/>
    <trip id="pas81" depart="12.96" from="-473691604#2" to="-548651990#0" type="passenger"/>
    <trip id="pas82" depart="13.12" from="4902394#5" to="179109642#2" type="passenger"/>
    <trip id="pas83" depart="13.28" from="221893215#0" to="-473684643" type="passenger"/>
    <trip id="pas84" depart="13.44" from="473691607" to="-327764057#0" type="passenger"/>
    <trip id="pas85" depart="13.60" from="4902394#0" to="549928648#2" type="passenger"/>
    <trip id="pas86" depart="13.76" from="4328546#0" to="-27803780#2" type="passenger"/>
    <trip id="pas87" depart="13.92" from="327956372" to="221893219#1" type="passenger"/>
    <trip id="pas88" depart="14.08" from="-27467655#1" to="247833369#0" type="passenger"/>
    <trip id="pas89" depart="14.24" from="-518474788" to="161392065" type="passenger"/>
    <trip id="pas90" depart="14.40" from="473684643" to="518474788" type="passenger"/>
    <trip id="pas91" depart="14.56" from="-28788384#1" to="27570527#1" type="passenger"/>
    <trip id="pas92" depart="14.72" from="-27570527#1" to="221893217#1" type="passenger"/>
    <trip id="pas93" depart="14.88" from="473691601#0" to="-27467656" type="passenger"/>
    <trip id="pas94" depart="15.04" from="-511815818" to="-28788382#5" type="passenger"/>
    <trip id="pas95" depart="15.20" from="-28885055#1" to="4902440#0" type="passenger"/>
    <trip id="pas96" depart="15.36" from="-28788382#5" to="-28788365#1" type="passenger"/>
    <trip id="pas97" depart="15.52" from="27570528#3" to="-27490679#0" type="passenger"/>
    <trip id="pas98" depart="15.68" from="221893217#4" to="-27467655#0" type="passenger"/>
    <trip id="pas99" depart="15.84" from="-221893217#2" to="161392068" type="passenger"/>
    <trip id="pas100" depart="16.00" from="386278913#0" to="341224416" type="passenger"/>
    <trip id="pas101" depart="16.16" from="27467656" to="-28788361#0" type="passenger"/>
    <trip id="pas102" depart="16.32" from="28788384#1" to="-327764057#0" type="passenger"/>
    <trip id="pas103" depart="16.48" from="-28885040#5" to="490522132" type="passenger"/>
    <trip id="pas104" depart="16.64" from="-4902451#1" to="-473691604#1" type="passenger"/>
    <trip id="pas105" depart="16.80" from="28788382#4" to="487551846#1" type="passenger"/>
    <trip id="pas106" depart="16.96" from="-340955667" to="549928642#1" type="passenger"/>
    <trip id="pas107" depart="17.12" from="-386278913#1" to="161389758" type="passenger"/>
    <trip id="pas108" depart="17.28" from="249697090#1" to="28885040#5" type="passenger"/>
    <trip id="pas109" depart="17.44" from="-27840841#3" to="-27570527#2" type="passenger"/>
    <trip id="pas110" depart="17.60" from="-162043157#0" to="-28788382#2" type="passenger"/>
    <trip id="pas111" depart="17.76" from="229481708#1" to="27570528#2" type="passenger"/>
    <trip id="pas112" depart="17.92" from="-27803780#1" to="161392064#3" type="passenger"/>
    <trip id="pas113" depart="18.08" from="-518474788" to="28885074#0" type="passenger"/>
    <trip id="pas114" depart="18.24" from="4523238#0" to="161389766#1" type="passenger"/>
    <trip id="pas115" depart="18.40" from="249697087" to="-249697087" type="passenger"/>
    <trip id="pas116" depart="18.56" from="27570527#0" to="161392064#3" type="passenger"/>
    <trip id="pas117" depart="18.72" from="-221893217#1" to="4902440#0" type="passenger"/>
    <trip id="pas118" depart="18.88" from="4734476#0" to="-548651990#0" type="passenger"/>
    <trip id="pas119" depart="19.04" from="4523238#0" to="386278913#2" type="passenger"/>
    <trip id="pas120" depart="19.20" from="-4902394#1" to="-27570528#3" type="passenger"/>
    <trip id="pas121" depart="19.36" from="-27570528#4" to="-386278899" type="passenger"/>
    <trip id="pas122" depart="19.52" from="511815819" to="-27570528#1" type="passenger"/>
    <trip id="pas123" depart="19.68" from="-473691601#1" to="-473691590#0" type="passenger"/>
    <trip id="pas124" depart="19.84" from="4523238#0" to="-327764055" type="passenger"/>
    <trip id="pas125" depart="20.00" from="27490679#0" to="4902451#1" type="passenger"/>
    <trip id="pas126" depart="20.16" from="39368522#0" to="475330829" type="passenger"/>
    <trip id="pas127" depart="20.32" from="-27467655#2" to="-162043157#0" type="passenger"/>
    <trip id="pas128" depart="20.48" from="4328546#0" to="386278897" type="passenger"/>
    <trip id="pas129" depart="20.64" from="-518474788" to="-28788361#0" type="passenger"/>
    <trip id="pas130" depart="20.80" from="327761947" to="-27467655#0" type="passenger"/>
    <trip id="pas131" depart="20.96" from="221893237" to="-340955662" type="passenger"/>
    <trip id="pas132" depart="21.12" from="-27840841#3" to="-27803780#1" type="passenger"/>
    <trip id="pas133" depart="21.28" from="-4734472" to="-473684642#0" type="passenger"/>
    <trip id="pas134" depart="21.44" from="-27840840#4" to="221893217#2" type="passenger"/>
    <trip id="pas135" depart="21.60" from="221893225" to="-4902394#4" type="passenger"/>
    <trip id="pas136" depart="21.76" from="-341224412" to="-179109642#2" type="passenger"/>
    <trip id="pas137" depart="21.92" from="418990606" to="327764057#1" type="passenger"/>
    <trip id="pas138" depart="22.08" from="548651990#0" to="473691590#0" type="passenger"/>
    <trip id="pas139" depart="22.24" from="39368522#0" to="-28788361#0" type="passenger"/>
    <trip id="pas140" depart="22.40" from="4734475#6" to="27803780#1" type="passenger"/>
    <trip id="pas141" depart="22.56" from="319453543#0" to="-221893285#1" type="passenger"/>
    <trip id="pas142" depart="22.72" from="161389756#1" to="-28788382#0" type="passenger"/>
    <trip id="pas143" depart="22.88" from="28885040#4" to="473691590#0" type="passenger"/>
    <trip id="pas144" depart="23.04" from="-221893219#1" to="4734487" type="passenger"/>
    <trip id="pas145" depart="23.20" from="-221893237" to="-4902453" type="passenger"/>
    <trip id="pas146" depart="23.36" from="-487551846#2" to="-28885040#0" type="passenger"/>
    <trip id="pas147" depart="23.52" from="221893219#1" to="221893217#1" type="passenger"/>
    <trip id="pas148" depart="23.68" from="-27840841#0" to="-27840840#1" type="passenger"/>
    <trip id="pas149" depart="23.84" from="27840840#3" to="-221893285#1" type="passenger"/>
    <trip id="pas150" depart="24.00" from="4328546#2" to="511815819" type="passenger"/>
    <trip id="pas151" depart="24.16" from="221893214#0" to="-340955662" type="passenger"/>
    <trip id="pas152" depart="24.32" from="28885070#1" to="27840841#3" type="passenger"/>
    <trip id="pas153" depart="24.48" from="28788371#0" to="-39368522#0" type="passenger"/>
    <trip id="pas154" depart="24.64" from="4559381" to="-28788382#2" type="passenger"/>
    <trip id="pas155" depart="24.80" from="221893219#0" to="28788361#1" type="passenger"/>
    <trip id="pas156" depart="24.96" from="28885040#5" to="-28788361#0" type="passenger"/>
    <trip id="pas157" depart="25.12" from="221893215#2" to="27840841#1" type="passenger"/>
    <trip id="pas158" depart="25.28" from="249871000" to="-487551846#0" type="passenger"/>
    <trip id="pas159" depart="25.44" from="179109642#1" to="4902378#1" type="passenger"/>
    <trip id="pas160" depart="25.60" from="-487551846#2" to="473691589" type="passenger"/>
    <trip id="pas161" depart="25.76" from="548651990#1" to="-487551846#0" type="passenger"/>
    <trip id="pas162" depart="25.92" from="27840838#0" to="4734475#5" type="passenger"/>
    <trip id="pas163" depart="26.08" from="161392065" to="-341224415#0" type="passenger"/>
    <trip id="pas164" depart="26.24" from="4902474" to="380438949#0" type="passenger"/>
    <trip id="pas165" depart="26.40" from="344144147#0" to="-27467655#0" type="passenger"/>
    <trip id="pas166" depart="26.56" from="327764057#0" to="221893217#0" type="passenger"/>
    <trip id="pas167" depart="26.72" from="-548651990#1" to="27840838#2" type="passenger"/>
    <trip id="pas168" depart="26.88" from="221893214#0" to="-4902453" type="passenger"/>
    <trip id="pas169" depart="27.04" from="-28788361#2" to="229481708#1" type="passenger"/>
    <trip id="pas170" depart="27.20" from="27467655#0" to="549928642#1" type="passenger"/>
    <trip id="pas171" depart="27.36" from="319453545#1" to="-39368524#2" type="passenger"/>
    <trip id="pas172" depart="27.52" from="-27803780#2" to="221893217#2" type="passenger"/>
    <trip id="pas173" depart="27.68" from="221893285#0" to="386278913#2" type="passenger"/>
    <trip id="pas174" depart="27.84" from="-386278913#2" to="386278913#0" type="passenger"/>
    <trip id="pas175" depart="28.00" from="4559007" to="161392067" type="passenger"/>
    <trip id="pas176" depart="28.16" from="548651990#0" to="-28788361#0" type="passenger"/>
    <trip id="pas177" depart="28.32" from="-28788365#1" to="341224412" type="passenger"/>
    <trip id="pas178" depart="28.48" from="-473691589" to="247833369#1" type="passenger"/>
    <trip id="pas179" depart="28.64" from="340955661" to="4559074#1" type="passenger"/>
    <trip id="pas180" depart="28.80" from="28788361#0" to="-221893217#4" type="passenger"/>
    <trip id="pas181" depart="28.96" from="-28885055#0" to="-473684643" type="passenger"/>
    <trip id="pas182" depart="29.12" from="327764059#0" to="-487551846#1" type="passenger"/>
    <trip id="pas183" depart="29.28" from="473691601#0" to="28885040#3" type="passenger"/>
    <trip id="pas184" depart="29.44" from="-27803780#1" to="-28788368#0" type="passenger"/>
    <trip id="pas185" depart="29.60" from="549928642#0" to="27840840#2" type="passenger"/>
    <trip id="pas186" depart="29.76" from="4734475#3" to="161389756#1" type="passenger"/>
    <trip id="pas187" depart="29.92" from="-39368522#1" to="27840840#3" type="passenger"/>
    <trip id="pas188" depart="30.08" from="-511815818" to="27570528#1" type="passenger"/>
    <trip id="pas189" depart="30.24" from="247833369#1" to="-4902453" type="passenger"/>
    <trip id="pas190" depart="30.40" from="8369310" to="28788382#0" type="passenger"/>
    <trip id="pas191" depart="30.56" from="4902436#0" to="487551846#2" type="passenger"/>
    <trip id="pas192" depart="30.72" from="-39368522#4" to="-327764057#0" type="passenger"/>
    <trip id="pas193" depart="30.88" from="221893215#0" to="-27840841#2" type="passenger"/>
    <trip id="pas194" depart="31.04" from="179109642#1" to="-4902453" type="passenger"/>
    <trip id="pas195" depart="31.20" from="548651990#0" to="-4902394#2" type="passenger"/>
    <trip id="pas196" depart="31.36" from="28885040#0" to="27840841#2" type="passenger"/>
    <trip id="pas197" depart="31.52" from="221893219#0" to="-327764057#0" type="passenger"/>
    <trip id="pas198" depart="31.68" from="27570528#3" to="28788371#0" type="passenger"/>
    <trip id="pas199" depart="31.84" from="39368524#0" to="-221893257" type="passenger"/>
    <trip id="pas200" depart="32.00" from="-4902394#5" to="473691601#1" type="passenger"/>
    <trip id="pas201" depart="32.16" from="548651990#0" to="-473684643" type="passenger"/>
    <trip id="pas202" depart="32.32" from="-386278897" to="-27490679#0" type="passenger"/>
    <trip id="pas203" depart="32.48" from="-4902394#6" to="549928648#2" type="passenger"/>
    <trip id="pas204" depart="32.64" from="-27840840#4" to="-27467656" type="passenger"/>
    <trip id="pas205" depart="32.80" from="548651990#0" to="27570528#3" type="passenger"/>
    <trip id="pas206" depart="32.96" from="-511815818" to="549928635" type="passenger"/>
    <trip id="pas207" depart="33.12" from="549928648#2" to="473691607" type="passenger"/>
    <trip id="pas208" depart="33.28" from="27840838#0" to="-221893257" type="passenger"/>
    <trip id="pas209" depart="33.44" from="221893217#4" to="327764053" type="passenger"/>
    <trip id="pas210" depart="33.60" from="340955667" to="161389766#1" type="passenger"/>
    <trip id="pas211" depart="33.76" from="-28788365#0" to="549928642#1" type="passenger"/>
    <trip id="pas212" depart="33.92" from="340955661" to="39368522#4" type="passenger"/>
    <trip id="pas213" depart="34.08" from="-386278913#0" to="487551846#0" type="passenger"/>
    <trip id="pas214" depart="34.24" from="549917967" to="-27490679#0" type="passenger"/>
    <trip id="pas215" depart="34.40" from="-327764057#1" to="-4902453" type="passenger"/>
    <trip id="pas216" depart="34.56" from="-27840838#2" to="96097834" type="passenger"/>
    <trip id="pas217" depart="34.72" from="28788374" to="-221893217#5" type="passenger"/>
    <trip id="pas218" depart="34.88" from="-221893219#2" to="327956373#1" type="passenger"/>
    <trip id="pas219" depart="35.04" from="-221893217#4" to="-4902394#0" type="passenger"/>
    <trip id="pas220" depart="35.20" from="28788374" to="549928635" type="passenger"/>
    <trip id="pas221" depart="35.36" from="221893217#4" to="327761947" type="passenger"/>
    <trip id="pas222" depart="35.52" from="-473691604#0" to="249697090#0" type="passenger"/>
    <trip id="pas223" depart="35.68" from="-221893240" to="221893285#0" type="passenger"/>
    <trip id="pas224" depart="35.84" from="-4902451#1" to="473691590#1" type="passenger"/>
    <trip id="pas225" depart="36.00" from="4734475#7" to="319453544" type="passenger"/>
    <trip id="pas226" depart="36.16" from="-386278899" to="549928642#1" type="passenger"/>
    <trip id="pas227" depart="36.32" from="27570528#0" to="4902451#1" type="passenger"/>
    <trip id="pas228" depart="36.48" from="-27840841#3" to="161392065" type="passenger"/>
    <trip id="pas229" depart="36.64" from="221893257" to="-221893219#0" type="passenger"/>
    <trip id="pas230" depart="36.80" from="-487551846#1" to="473691604#2" type="passenger"/>
    <trip id="pas231" depart="36.96" from="-27467655#2" to="-221893235" type="passenger"/>
    <trip id="pas232" depart="37.12" from="229481708#3" to="221893235" type="passenger"/>
    <trip id="pas233" depart="37.28" from="27490679#1" to="-221893214#0" type="passenger"/>
    <trip id="pas234" depart="37.44" from="247833370#0" to="-28788371#0" type="passenger"/>
    <trip id="pas235" depart="37.60" from="161389764" to="4734474" type="passenger"/>
    <trip id="pas236" depart="37.76" from="39368524#1" to="-27803780#1" type="passenger"/>
    <trip id="pas237" depart="37.92" from="4902453" to="-221893214#0" type="passenger"/>
    <trip id="pas238" depart="38.08" from="473684643" to="-39368522#4" type="passenger"/>
    <trip id="pas239" depart="38.24" from="-28788382#2" to="319453543#1" type="passenger"/>
    <trip id="pas240" depart="38.40" from="221893217#5" to="249870999#1" type="passenger"/>
    <trip id="pas241" depart="38.56" from="327764059#1" to="4806304" type="passenger"/>
    <trip id="pas242" depart="38.72" from="-473691589" to="28788365#1" type="passenger"/>
    <trip id="pas243" depart="38.88" from="-28885040#3" to="179109642#2" type="passenger"/>
    <trip id="pas244" depart="39.04" from="340955667" to="27570528#0" type="passenger"/>
    <trip id="pas245" depart="39.20" from="327761948#0" to="319453545#0" type="passenger"/>
    <trip id="pas246" depart="39.36" from="-221893215#0" to="221893214#1" type="passenger"/>
    <trip id="pas247" depart="39.52" from="-4734472" to="-221893215#0" type="passenger"/>
    <trip id="pas248" depart="39.68" from="28788361#0" to="-221893285#0" type="passenger"/>
    <trip id="pas249" depart="39.84" from="-27570528#4" to="4902474" type="passenger"/>
    <trip id="pas250" depart="40.00" from="340955667" to="221893215#1" type="passenger"/>
    <trip id="pas251" depart="40.16" from="4734476#0" to="4902451#1" type="passenger"/>
    <trip id="pas252" depart="40.32" from="418990606" to="221893240" type="passenger"/>
    <trip id="pas253" depart="40.48" from="28788382#0" to="28788384#0" type="passenger"/>
    <trip id="pas254" depart="40.64" from="27803780#1" to="-473684642#1" type="passenger"/>
    <trip id="pas255" depart="40.80" from="28788361#1" to="4902451#1" type="passenger"/>
    <trip id="pas256" depart="40.96" from="27840840#3" to="-221893217#5" type="passenger"/>
    <trip id="pas257" depart="41.12" from="249697090#4" to="4559074#0" type="passenger"/>
    <trip id="pas258" depart="41.28" from="4734490" to="-487551846#0" type="passenger"/>
    <trip id="pas259" depart="41.44" from="473691607" to="28788370#0" type="passenger"/>
    <trip id="pas260" depart="41.60" from="221893219#0" to="473691589" type="passenger"/>
    <trip id="pas261" depart="41.76" from="28885040#1" to="-473691609" type="passenger"/>
    <trip id="pas262" depart="41.92" from="-28788370#1" to="28885055#1" type="passenger"/>
    <trip id="pas263" depart="42.08" from="221893214#1" to="487551846#2" type="passenger"/>
    <trip id="pas264" depart="42.24" from="549928648#1" to="-221893214#0" type="passenger"/>
    <trip id="pas265" depart="42.40" from="344144147#1" to="-28885040#5" type="passenger"/>
    <trip id="pas266" depart="42.56" from="-27840841#3" to="475330829" type="passenger"/>
    <trip id="pas267" depart="42.72" from="-221893215#1" to="-327764057#0" type="passenger"/>
    <trip id="pas268" depart="42.88" from="27840838#1" to="341224416" type="passenger"/>
    <trip id="pas269" depart="43.04" from="-28885040#1" to="-386278913#1" type="passenger"/>
    <trip id="pas270" depart="43.20" from="27467655#1" to="247833370#0" type="passenger"/>
    <trip id="pas271" depart="43.36" from="221893215#2" to="27570528#4" type="passenger"/>
    <trip id="pas272" depart="43.52" from="161392064#3" to="487551846#2" type="passenger"/>
    <trip id="pas273" depart="43.68" from="28885073" to="27803780#1" type="passenger"/>
    <trip id="pas274" depart="43.84" from="27840840#2" to="549345534" type="passenger"/>
    <trip id="pas275" depart="44.00" from="27840838#1" to="473691589" type="passenger"/>
    <trip id="pas276" depart="44.16" from="341224415#0" to="247833371#1" type="passenger"/>
    <trip id="pas277" depart="44.32" from="344144147#1" to="4902374#0" type="passenger"/>
    <trip id="pas278" depart="44.48" from="327764053" to="-386278899" type="passenger"/>
    <trip id="pas279" depart="44.64" from="-27570528#4" to="511815818" type="passenger"/>
    <trip id="pas280" depart="44.80" from="-487551846#2" to="-473691590#1" type="passenger"/>
    <trip id="pas281" depart="44.96" from="-27840841#3" to="473691601#1" type="passenger"/>
    <trip id="pas282" depart="45.12" from="-386278913#2" to="518474788" type="passenger"/>
    <trip id="pas283" depart="45.28" from="-28788371#0" to="-511815820" type="passenger"/>
    <trip id="pas284" depart="45.44" from="344144147#0" to="4734475#3" type="passenger"/>
    <trip id="pas285" depart="45.60" from="27570527#3" to="-27490680" type="passenger"/>
    <trip id="pas286" depart="45.76" from="-548651990#1" to="4902374#2" type="passenger"/>
    <trip id="pas287" depart="45.92" from="418990606" to="-28788382#5" type="passenger"/>
    <trip id="pas288" depart="46.08" from="28788374" to="490522132" type="passenger"/>
    <trip id="pas289" depart="46.24" from="-221893217#5" to="27840841#2" type="passenger"/>
    <trip id="pas290" depart="46.40" from="27570527#0" to="549928642#1" type="passenger"/>
    <trip id="pas291" depart="46.56" from="-341224412" to="473691589" type="passenger"/>
    <trip id="pas292" depart="46.72" from="4734488" to="28885040#1" type="passenger"/>
    <trip id="pas293" depart="46.88" from="28885040#3" to="-27467655#0" type="passenger"/>
    <trip id="pas294" depart="47.04" from="4523238#0" to="473691604#1" type="passenger"/>
    <trip id="pas295" depart="47.20" from="27570528#4" to="-27467655#0" type="passenger"/>
    <trip id="pas296" depart="47.36" from="28788365#0" to="4734475#0" type="passenger"/>
    <trip id="pas297" depart="47.52" from="-4902394#6" to="-27570528#0" type="passenger"/>
    <trip id="pas298" depart="47.68" from="549928635" to="221893217#5" type="passenger"/>
    <trip id="pas299" depart="47.84" from="4328546#0" to="28788371#1" type="passenger"/>
    <trip id="pas300" depart="48.00" from="4734475#7" to="-27467655#0" type="passenger"/>
    <trip id="pas301" depart="48.16" from="-221893217#0" to="249697090#1" type="passenger"/>
    <trip id="pas302" depart="48.32" from="27840841#1" to="-221893257" type="passenger"/>
    <trip id="pas303" depart="48.48" from="340955661" to="511815818" type="passenger"/>
    <trip id="pas304" depart="48.64" from="28788384#1" to="221893217#1" type="passenger"/>
    <trip id="pas305" depart="48.80" from="4559074#1" to="341224415#0" type="passenger"/>
    <trip id="pas306" depart="48.96" from="-162043157#0" to="473691604#0" type="passenger"/>
    <trip id="pas307" depart="49.12" from="245546865" to="4734475#6" type="passenger"/>
    <trip id="pas308" depart="49.28" from="4328546#0" to="-487551846#0" type="passenger"/>
    <trip id="pas309" depart="49.44" from="-27840840#4" to="28885040#1" type="passenger"/>
    <trip id="pas310" depart="49.60" from="-386278897" to="229481708#3" type="passenger"/>
    <trip id="pas311" depart="49.76" from="-221893217#4" to="511815818" type="passenger"/>
    <trip id="pas312" depart="49.92" from="161389766#1" to="-27570528#3" type="passenger"/>
    <trip id="pas313" depart="50.08" from="229481708#2" to="-221893217#0" type="passenger"/>
    <trip id="pas314" depart="50.24" from="-28788384#0" to="161392069#1" type="passenger"/>
    <trip id="pas315" depart="50.40" from="249871000" to="-27840841#1" type="passenger"/>
    <trip id="pas316" depart="50.56" from="-28885040#4" to="-221893257" type="passenger"/>
    <trip id="pas317" depart="50.72" from="-549928648#1" to="319453543#1" type="passenger"/>
    <trip id="pas318" depart="50.88" from="473691601#0" to="39368524#0" type="passenger"/>
    <trip id="pas319" depart="51.04" from="-221893219#2" to="27803780#0" type="passenger"/>
    <trip id="pas320" depart="51.20" from="4902394#0" to="-221893285#1" type="passenger"/>
    <trip id="pas321" depart="51.36" from="-221893217#5" to="249697090#2" type="passenger"/>
    <trip id="pas322" depart="51.52" from="39368522#0" to="-327764057#2" type="passenger"/>
    <trip id="pas323" depart="51.68" from="161392059#1" to="221893285#1" type="passenger"/>
    <trip id="pas324" depart="51.84" from="4559074#0" to="549928646#0" type="passenger"/>