<?xml version="1.0"?>
<!-- generated on 2018-01-01 11:39:37.340031 by $Id: randomTrips.py 23999 2017-04-21 09:04:47Z behrisch $
  options: <doubleminus>fringe-factor 5 <doubleminus>prefix bus <doubleminus>vehicle-class bus -n /media/jefferson/Dados/workspace/GoodsTracker/vanet/sp/place/osm.net.xml -r /media/jefferson/Dados/workspace/GoodsTracker/vanet/sp/place/osm.bus.rou.xml -p 0.32 -e 3600 -o /media/jefferson/Dados/workspace/GoodsTracker/vanet/sp/place/osm.bus.trips.xml
-->
<routes xmlns:xsi="http://www.w3.org/2001/XMLSchema-instance" xsi:noNamespaceSchemaLocation="http://sumo.dlr.de/xsd/routes_file.xsd">
    <vType id="bus" vClass="bus" />
    <trip id="bus0" depart="0.00" from="418990606" to="161392064#0" type="bus"/>
    <trip id="bus1" depart="0.32" from="161392065" to="319453543#1" type="bus"/>
    <trip id="bus2" depart="0.64" from="28788374" to="249870999#1" type="bus"/>
    <trip id="bus3" depart="0.96" from="28788374" to="-27840836" type="bus"/>
    <trip id="bus4" depart="1.28" from="386278913#0" to="221893225" type="bus"/>
    <trip id="bus5" depart="1.60" from="179109642#0" to="4734476#0" type="bus"/>
    <trip id="bus6" depart="1.92" from="28788366" to="39368524#1" type="bus"/>
    <trip id="bus7" depart="2.24" from="221893214#0" to="221893219#1" type="bus"/>
    <trip id="bus8" depart="2.56" from="327764057#0" to="549928648#2" type="bus"/>
    <trip id="bus9" depart="2.88" from="28885040#5" to="161392067" type="bus"/>
    <trip id="bus10" depart="3.20" from="179109642#2" to="-39368522#1" type="bus"/>
    <trip id="bus11" depart="3.52" from="-511815818" to="4902440#0" type="bus"/>
    <trip id="bus12" depart="3.84" from="-490522132" to="221893217#2" type="bus"/>
    <trip id="bus13" depart="4.16" from="179109642#0" to="4734475#4" type="bus"/>
    <trip id="bus14" depart="4.48" from="39368522#0" to="-221893214#0" type="bus"/>
    <trip id="bus15" depart="4.80" from="221893267" to="-341224416" type="bus"/>
    <trip id="bus16" depart="5.12" from="-27467655#3" to="221893219#2" type="bus"/>
    <trip id="bus17" depart="5.44" from="327764059#0" to="-4902453" type="bus"/>
    <trip id="bus18" depart="5.76" from="-490522132" to="-549928648#0" type="bus"/>
    <trip id="bus19" depart="6.08" from="28885040#3" to="179109642#1" type="bus"/>
    <trip id="bus20" depart="6.40" from="247833368" to="27840840#3" type="bus"/>
    <trip id="bus21" depart="6.72" from="380438949#1" to="341224416" type="bus"/>
    <trip id="bus22" depart="7.04" from="4902416#2" to="15968349" type="bus"/>
    <trip id="bus23" depart="7.36" from="27570528#1" to="221893235" type="bus"/>
    <trip id="bus24" depart="7.68" from="344144147#0" to="-28788370#0" type="bus"/>
    <trip id="bus25" depart="8.00" from="319453545#1" to="4902436#1" type="bus"/>
    <trip id="bus26" depart="8.32" from="27803780#1" to="-473691609" type="bus"/>
    <trip id="bus27" depart="8.64" from="-28788368#0" to="4902394#6" type="bus"/>
    <trip id="bus28" depart="8.96" from="27570527#0" to="4734490" type="bus"/>
    <trip id="bus29" depart="9.28" from="-386278913#2" to="386278913#1" type="bus"/>
    <trip id="bus30" depart="9.60" from="-221893217#0" to="28885055#1" type="bus"/>
    <trip id="bus31" depart="9.92" from="249697090#4" to="473691594" type="bus"/>
    <trip id="bus32" depart="10.24" from="-27840840#3" to="221893217#5" type="bus"/>
    <trip id="bus33" depart="10.56" from="-511815820" to="-548651990#0" type="bus"/>
    <trip id="bus34" depart="10.88" from="549928642#0" to="386278913#2" type="bus"/>
    <trip id="bus35" depart="11.20" from="4902453" to="4902394#5" type="bus"/>
    <trip id="bus36" depart="11.52" from="221893217#4" to="28788366" type="bus"/>
    <trip id="bus37" depart="11.84" from="4559381" to="549928648#3" type="bus"/>
    <trip id="bus38" depart="12.16" from="-518474788" to="4559074#1" type="bus"/>
    <trip id="bus39" depart="12.48" from="344144147#0" to="27840841#3" type="bus"/>
    <trip id="bus40" depart="12.80" from="344144147#0" to="-4734472" type="bus"/>
    <trip id="bus41" depart="13.12" from="-27570528#1" to="247833370#1" type="bus"/>
    <trip id="bus42" depart="13.44" from="-341224415#1" to="-4902394#1" type="bus"/>
    <trip id="bus43" depart="13.76" from="-221893215#1" to="161392064#3" type="bus"/>
    <trip id="bus44" depart="14.08" from="-386278897" to="-27840841#2" type="bus"/>
    <trip id="bus45" depart="14.40" from="221893214#0" to="473691601#1" type="bus"/>
    <trip id="bus46" depart="14.72" from="-221893219#2" to="473691589" type="bus"/>
    <trip id="bus47" depart="15.04" from="39368522#0" to="27467656" type="bus"/>
    <trip id="bus48" depart="15.36" from="-28885040#0" to="28885055#1" type="bus"/>
    <trip id="bus49" depart="15.68" from="-4902394#1" to="247833370#1" type="bus"/>
    <trip id="bus50" depart="16.00" from="341224415#1" to="245546865" type="bus"/>
    <trip id="bus51" depart="16.32" from="161392064#3" to="-548651990#0" type="bus"/>
    <trip id="bus52" depart="16.64" from="-341224415#0" to="15968349" type="bus"/>
    <trip id="bus53" depart="16.96" from="28788366" to="27490680" type="bus"/>
    <trip id="bus54" depart="17.28" from="4559381" to="327956374" type="bus"/>
    <trip id="bus55" depart="17.60" from="4902433" to="27840836" type="bus"/>
    <trip id="bus56" depart="17.92" from="4734475#3" to="-548651990#1" type="bus"/>
    <trip id="bus57" depart="18.24" from="27467655#3" to="249870999#1" type="bus"/>
    <trip id="bus58" depart="18.56" from="4902453" to="27840840#4" type="bus"/>
    <trip id="bus59" depart="18.88" from="-518474788" to="28788366" type="bus"/>
    <trip id="bus60" depart="19.20" from="-28788382#3" to="4902451#1" type="bus"/>
    <trip id="bus61" depart="19.52" from="-28885074#0" to="27840840#2" type="bus"/>
    <trip id="bus62" depart="19.84" from="4559074#5" to="161389766#1" type="bus"/>
    <trip id="bus63" depart="20.16" from="221893219#1" to="28885040#4" type="bus"/>
    <trip id="bus64" depart="20.48" from="-518474788" to="229481708#0" type="bus"/>
    <trip id="bus65" depart="20.80" from="28788361#0" to="548651990#1" type="bus"/>
    <trip id="bus66" depart="21.12" from="39368522#0" to="-249697087" type="bus"/>
    <trip id="bus67" depart="21.44" from="-386278897" to="-28788370#0" type="bus"/>
    <trip id="bus68" depart="21.76" from="473691590#0" to="-27840841#2" type="bus"/>
    <trip id="bus69" depart="22.08" from="4734476#0" to="-27467655#0" type="bus"/>
    <trip id="bus70" depart="22.40" from="221893285#1" to="549928642#1" type="bus"/>
    <trip id="bus71" depart="22.72" from="221893214#0" to="386278913#1" type="bus"/>
    <trip id="bus72" depart="23.04" from="-28788382#3" to="247833370#0" type="bus"/>
    <trip id="bus73" depart="23.36" from="-179109642#1" to="-221893217#2" type="bus"/>
    <trip id="bus74" depart="23.68" from="247833369#0" to="249697090#3" type="bus"/>
    <trip id="bus75" depart="24.00" from="247833371#0" to="-27840838#1" type="bus"/>
    <trip id="bus76" depart="24.32" from="4734476#0" to="28788365#0" type="bus"/>
    <trip id="bus77" depart="24.64" from="161392067" to="-179109642#1" type="bus"/>
    <trip id="bus78" depart="24.96" from="473691607" to="-27803780#1" type="bus"/>
    <trip id="bus79" depart="25.28" from="-39368524#0" to="511815820" type="bus"/>
    <trip id="bus80" depart="25.60" from="27840838#1" to="4559074#0" type="bus"/>
    <trip id="bus81" depart="25.92" from="4902416#2" to="-548651990#0" type="bus"/>
    <trip id="bus82" depart="26.24" from="28885070#0" to="490522132" type="bus"/>
    <trip id="bus83" depart="26.56" from="39368522#0" to="27570528#1" type="bus"/>
    <trip id="bus84" depart="26.88" from="4559074#3" to="-27490679#0" type="bus"/>
    <trip id="bus85" depart="27.20" from="-473691589" to="-473691590#1" type="bus"/>
    <trip id="bus86" depart="27.52" from="161392069#1" to="319453543#2" type="bus"/>
    <trip id="bus87" depart="27.84" from="221893219#0" to="4902394#1" type="bus"/>
    <trip id="bus88" depart="28.16" from="221893217#2" to="28788382#5" type="bus"/>
    <trip id="bus89" depart="28.48" from="221893214#0" to="4902394#6" type="bus"/>
    <trip id="bus90" depart="28.80" from="28885040#0" to="-473684643" type="bus"/>
    <trip id="bus91" depart="29.12" from="386278913#1" to="229481708#2" type="bus"/>
    <trip id="bus92" depart="29.44" from="28885073" to="27840840#4" type="bus"/>
    <trip id="bus93" depart="29.76" from="340955667" to="161389756#1" type="bus"/>
    <trip id="bus94" depart="30.08" from="27467655#2" to="-28788370#0" type="bus"/>
    <trip id="bus95" depart="30.40" from="-487551846#2" to="-249697087" type="bus"/>
    <trip id="bus96" depart="30.72" from="247833370#0" to="27840841#3" type="bus"/>
    <trip id="bus97" depart="31.04" from="327761947" to="511815818" type="bus"/>
    <trip id="bus98" depart="31.36" from="-28788382#0" to="161392068" type="bus"/>
    <trip id="bus99" depart="31.68" from="319453543#0" to="27840841#2" type="bus"/>
    <trip id="bus100" depart="32.00" from="221893257" to="487551846#2" type="bus"/>
    <trip id="bus101" depart="32.32" from="4328546#0" to="161392064#3" type="bus"/>
    <trip id="bus102" depart="32.64" from="473691607" to="39368524#1" type="bus"/>
    <trip id="bus103" depart="32.96" from="548651990#0" to="-27803780#2" type="bus"/>
    <trip id="bus104" depart="33.28" from="-473691604#2" to="4734475#0" type="bus"/>
    <trip id="bus105" depart="33.60" from="473691590#1" to="221893215#0" type="bus"/>
    <trip id="bus106" depart="33.92" from="-221893240" to="4734474" type="bus"/>
    <trip id="bus107" depart="34.24" from="-28788382#1" to="327764059#1" type="bus"/>
    <trip id="bus108" depart="34.56" from="4559074#5" to="-327764057#0" type="bus"/>
    <trip id="bus109" depart="34.88" from="418990606" to="27840841#3" type="bus"/>
    <trip id="bus110" depart="35.20" from="549928648#0" to="-39368522#5" type="bus"/>
    <trip id="bus111" depart="35.52" from="27490679#0" to="27840840#4" type="bus"/>
    <trip id="bus112" depart="35.84" from="27570527#3" to="-27570528#0" type="bus"/>
    <trip id="bus113" depart="36.16" from="473684642#1" to="229481708#5" type="bus"/>
    <trip id="bus114" depart="36.48" from="-27840838#0" to="327956374" type="bus"/>
    <trip id="bus115" depart="36.80" from="249871000" to="221893217#0" type="bus"/>
    <trip id="bus116" depart="37.12" from="4902453" to="-28788371#1" type="bus"/>
    <trip id="bus117" depart="37.44" from="28788365#0" to="-549928646#0" type="bus"/>
    <trip id="bus118" depart="37.76" from="161389765" to="-249697087" type="bus"/>
    <trip id="bus119" depart="38.08" from="-221893217#1" to="247833368" type="bus"/>
    <trip id="bus120" depart="38.40" from="-39368522#2" to="-548651990#0" type="bus"/>
    <trip id="bus121" depart="38.72" from="327761947" to="319453543#1" type="bus"/>
    <trip id="bus122" depart="39.04" from="549928648#1" to="-28885040#1" type="bus"/>
    <trip id="bus123" depart="39.36" from="96097834" to="473691604#2" type="bus"/>
    <trip id="bus124" depart="39.68" from="27467655#2" to="-473691594" type="bus"/>
    <trip id="bus125" depart="40.00" from="-27840841#1" to="4559074#3" type="bus"/>
    <trip id="bus126" depart="40.32" from="28788361#2" to="27840841#3" type="bus"/>
    <trip id="bus127" depart="40.64" from="27467655#1" to="249870999#0" type="bus"/>
    <trip id="bus128" depart="40.96" from="221893214#0" to="-386278913#1" type="bus"/>
    <trip id="bus129" depart="41.28" from="4523238#0" to="4902394#6" type="bus"/>
    <trip id="bus130" depart="41.60" from="-28885040#2" to="-4902433" type="bus"/>
    <trip id="bus131" depart="41.92" from="247833370#1" to="4902378#1" type="bus"/>
    <trip id="bus132" depart="42.24" from="-518474788" to="15968349" type="bus"/>
    <trip id="bus133" depart="42.56" from="229481708#3" to="-27570527#0" type="bus"/>
    <trip id="bus134" depart="42.88" from="4902433" to="-28788384#0" type="bus"/>
    <trip id="bus135" depart="43.20" from="4734475#3" to="-28885070#0" type="bus"/>
    <trip id="bus136" depart="43.52" from="-27803780#1" to="161389756#1" type="bus"/>
    <trip id="bus137" depart="43.84" from="27803780#0" to="221893217#4" type="bus"/>
    <trip id="bus138" depart="44.16" from="-221893217#1" to="-27467655#0" type="bus"/>
    <trip id="bus139" depart="44.48" from="-518474788" to="4902436#0" type="bus"/>
    <trip id="bus140" depart="44.80" from="327764057#2" to="27840836" type="bus"/>
    <trip id="bus141" depart="45.12" from="4734475#6" to="-39368522#1" type="bus"/>
    <trip id="bus142" depart="45.44" from="386278899" to="28885040#4" type="bus"/>
    <trip id="bus143" depart="45.76" from="-221893217#0" to="518474575" type="bus"/>
    <trip id="bus144" depart="46.08" from="27840838#1" to="27840840#3" type="bus"/>
    <trip id="bus145" depart="46.40" from="249697090#4" to="4328546#2" type="bus"/>
    <trip id="bus146" depart="46.72" from="39368522#2" to="511815818" type="bus"/>
    <trip id="bus147" depart="47.04" from="4902453" to="221893215#2" type="bus"/>
    <trip id="bus148" depart="47.36" from="4523238#1" to="161392067" type="bus"/>
    <trip id="bus149" depart="47.68" from="-28788371#0" to="-39368522#2" type="bus"/>
    <trip id="bus150" depart="48.00" from="-28885070#0" to="-221893219#0" type="bus"/>
    <trip id="bus151" depart="48.32" from="4902374#2" to="-487551846#0" type="bus"/>
    <trip id="bus152" depart="48.64" from="-4902394#6" to="-27570528#0" type="bus"/>
    <trip id="bus153" depart="48.96" from="28885070#0" to="-221893235" type="bus"/>
    <trip id="bus154" depart="49.28" from="229481708#2" to="-39368523" type="bus"/>
    <trip id="bus155" depart="49.60" from="4902453" to="473691604#1" type="bus"/>
    <trip id="bus156" depart="49.92" from="-221893217#2" to="4559074#5" type="bus"/>
    <trip id="bus157" depart="50.24" from="-487551846#2" to="341224412" type="bus"/>
    <trip id="bus158" depart="50.56" from="341224415#1" to="4902394#6" type="bus"/>
    <trip id="bus159" depart="50.88" from="-179109642#1" to="221893217#0" type="bus"/>
    <trip id="bus160" depart="51.20" from="27803780#2" to="4902436#1" type="bus"/>
    <trip id="bus161" depart="51.52" from="549928648#0" to="4902440#0" type="bus"/>
    <trip id="bus162" depart="51.84" from="549928648#0" to="221893237" type="bus"/>
    <trip id="bus163" depart="52.16" from="-27490679#1" to="4806304" type="bus"/>
    <trip id="bus164" depart="52.48" from="-490522132" to="380438949#1" type="bus"/>
    <trip id="bus165" depart="52.80" from="-221893217#1" to="-511815820" type="bus"/>
    <trip id="bus166" depart="53.12" from="549928635" to="549928646#0" type="bus"/>
    <trip id="bus167" depart="53.44" from="327956372" to="-28788368#0" type="bus"/>
    <trip id="bus168" depart="53.76" from="-4902436#1" to="-249697087" type="bus"/>
    <trip id="bus169" depart="54.08" from="-518474788" to="161389762" type="bus"/>
    <trip id="bus170" depart="54.40" from="-221893219#2" to="-473684643" type="bus"/>
    <trip id="bus171" depart="54.72" from="247833369#1" to="-28788382#5" type="bus"/>
    <trip id="bus172" depart="55.04" from="161392064#1" to="229481708#0" type="bus"/>
    <trip id="bus173" depart="55.36" from="-221893219#2" to="-487551846#0" type="bus"/>
    <trip id="bus174" depart="55.68" from="-473691604#2" to="487551846#2" type="bus"/>
    <trip id="bus175" depart="56.00" from="221893285#1" to="-487551846#0" type="bus"/>
    <trip id="bus176" depart="56.32" from="-27840840#0" to="27467655#2" type="bus"/>
    <trip id="bus177" depart="56.64" from="28788382#1" to="327956373#1" type="bus"/>
    <trip id="bus178" depart="56.96" from="-39368524#1" to="4734475#3" type="bus"/>
    <trip id="bus179" depart="57.28" from="-28885040#4" to="-221893219#0" type="bus"/>
    <trip id="bus180" depart="57.60" from="-4902394#1" to="-27467655#0" type="bus"/>
    <trip id="bus181" depart="57.92" from="-221893285#1" to="4559074#1" type="bus"/>
    <trip id="bus182" depart="58.24" from="4559074#6" to="-27467655#0" type="bus"/>
    <trip id="bus183" depart="58.56" from="-4902394#6" to="28885040#2" type="bus"/>
    <trip id="bus184" depart="58.88" from="221893279" to="-28788365#2" type="bus"/>
    <trip id="bus185" depart="59.20" from="4328546#1" to="4734488" type="bus"/>
    <trip id="bus186" depart="59.52" from="327764059#0" to="-28885040#3" type="bus"/>
    <trip id="bus187" depart="59.84" from="4902474" to="-27803780#0" type="bus"/>
    <trip id="bus188" depart="60.16" from="4902394#4" to="-27570528#4" type="bus"/>
    <trip id="bus189" depart="60.48" from="162043157#1" to="-27570527#3" type="bus"/>
    <trip id="bus190" depart="60.80" from="28885040#5" to="341224412" type="bus"/>
    <trip id="bus191" depart="61.12" from="-549928648#2" to="-4902453" type="bus"/>
    <trip id="bus192" depart="61.44" from="4523238#0" to="-221893219#0" type="bus"/>
    <trip id="bus193" depart="61.76" from="-221893217#1" to="511815818" type="bus"/>
    <trip id="bus194" depart="62.08" from="-27803780#1" to="549928635" type="bus"/>
    <trip id="bus195" depart="62.40" from="27570527#0" to="549928646#0" type="bus"/>
    <trip id="bus196" depart="62.72" from="-28788361#2" to="475330829" type="bus"/>
    <trip id="bus197" depart="63.04" from="-27840841#3" to="39368524#0" type="bus"/>
    <trip id="bus198" depart="63.36" from="28788382#2" to="-28788361#0" type="bus"/>
    <trip id="bus199" depart="63.68" from="179109642#2" to="-386278913#1" type="bus"/>
    <trip id="bus200" depart="64.00" from="161389756#1" to="27467655#3" type="bus"/>
    <trip id="bus201" depart="64.32" from="27803780#1" to="-28788374" type="bus"/>
    <trip id="bus202" depart="64.64" from="-4902451#1" to="487551846#2" type="bus"/>
    <trip id="bus203" depart="64.96" from="161392067" to="-548651990#0" type="bus"/>
    <trip id="bus204" depart="65.28" from="-4902394#2" to="-27467655#1" type="bus"/>
    <trip id="bus205" depart="65.60" from="549928648#0" to="-548651990#1" type="bus"/>
    <trip id="bus206" depart="65.92" from="4902374#1" to="4559007" type="bus"/>
    <trip id="bus207" depart="66.24" from="-28788370#1" to="-27570527#0" type="bus"/>
    <trip id="bus208" depart="66.56" from="28788382#1" to="-28788374" type="bus"/>
    <trip id="bus209" depart="66.88" from="221893257" to="-28788374" type="bus"/>
    <trip id="bus210" depart="67.20" from="-4902394#4" to="4902451#1" type="bus"/>
    <trip id="bus211" depart="67.52" from="-28788382#1" to="249870999#0" type="bus"/>
    <trip id="bus212" depart="67.84" from="-39368524#2" to="-28885040#0" type="bus"/>
    <trip id="bus213" depart="68.16" from="341224415#1" to="-473684643" type="bus"/>
    <trip id="bus214" depart="68.48" from="319453543#0" to="161392059#2" type="bus"/>
    <trip id="bus215" depart="68.80" from="15968284" to="39368522#1" type="bus"/>
    <trip id="bus216" depart="69.12" from="473691604#1" to="386278913#0" type="bus"/>
    <trip id="bus217" depart="69.44" from="549928648#1" to="15968284" type="bus"/>
    <trip id="bus218" depart="69.76" from="-473691604#0" to="327764059#1" type="bus"/>
    <trip id="bus219" depart="70.08" from="249871000" to="341224415#0" type="bus"/>
    <trip id="bus220" depart="70.40" from="28788374" to="-473684643" type="bus"/>
    <trip id="bus221" depart="70.72" from="-4902436#1" to="221893219#1" type="bus"/>
    <trip id="bus222" depart="71.04" from="-27840841#3" to="221893219#2" type="bus"/>
    <trip id="bus223" depart="71.36" from="473691607" to="-28788365#0" type="bus"/>
    <trip id="bus224" depart="71.68" from="221893217#4" to="-4902394#2" type="bus"/>
    <trip id="bus225" depart="72.00" from="27467655#0" to="4902436#1" type="bus"/>
    <trip id="bus226" depart="72.32" from="4328546#0" to="-386278913#1" type="bus"/>
    <trip id="bus227" depart="72.64" from="-548651990#1" to="-473691590#1" type="bus"/>
    <trip id="bus228" depart="72.96" from="-162043157#1" to="27570528#2" type="bus"/>
    <trip id="bus229" depart="73.28" from="-27570527#1" to="221893225" type="bus"/>
    <trip id="bus230" depart="73.60" from="245546867" to="-179109642#1" type="bus"/>
    <trip id="bus231" depart="73.92" from="-518474788" to="327761947" type="bus"/>
    <trip id="bus232" depart="74.24" from="473684642#0" to="96097794" type="bus"/>
    <trip id="bus233" depart="74.56" from="-221893217#0" to="-548651990#0" type="bus"/>
    <trip id="bus234" depart="74.88" from="161389758" to="-27570527#0" type="bus"/>
    <trip id="bus235" depart="75.20" from="27803780#2" to="327754983" type="bus"/>
    <trip id="bus236" depart="75.52" from="28788374" to="39368524#0" type="bus"/>
    <trip id="bus237" depart="75.84" from="418990606" to="4559074#5" type="bus"/>
    <trip id="bus238" depart="76.16" from="511815820" to="221893225" type="bus"/>
    <trip id="bus239" depart="76.48" from="27467655#2" to="221893285#1" type="bus"/>
    <trip id="bus240" depart="76.80" from="39368522#0" to="-27490679#0" type="bus"/>
    <trip id="bus241" depart="77.12" from="-473691601#1" to="-27490679#0" type="bus"/>
    <trip id="bus242" depart="77.44" from="-28885040#3" to="341224412" type="bus"/>
    <trip id="bus243" depart="77.76" from="380438949#0" to="341224412" type="bus"/>
    <trip id="bus244" depart="78.08" from="161389766#1" to="221893217#5" type="bus"/>
    <trip id="bus245" depart="78.40" from="229481708#2" to="-27803780#1" type="bus"/>
    <trip id="bus246" depart="78.72" from="-341224412" to="327764059#0" type="bus"/>
    <trip id="bus247" depart="79.04" from="27840841#0" to="161392066" type="bus"/>
    <trip id="bus248" depart="79.36" from="221893215#0" to="4806303" type="bus"/>
    <trip id="bus249" depart="79.68" from="221893219#0" to="-221893215#0" type="bus"/>
    <trip id="bus250" depart="80.00" from="-4902451#1" to="4902416#2" type="bus"/>
    <trip id="bus251" depart="80.32" from="-386278913#2" to="341224416" type="bus"/>
    <trip id="bus252" depart="80.64" from="549928642#0" to="475330829" type="bus"/>
    <trip id="bus253" depart="80.96" from="4734475#7" to="4902436#1" type="bus"/>
    <trip id="bus254" depart="81.28" from="4902416#2" to="473691601#1" type="bus"/>
    <trip id="bus255" depart="81.60" from="-221893225" to="162043156" type="bus"/>
    <trip id="bus256" depart="81.92" from="28788382#5" to="487551846#0" type="bus"/>
    <trip id="bus257" depart="82.24" from="340955661" to="4734475#3" type="bus"/>
    <trip id="bus258" depart="82.56" from="4902394#4" to="28788365#1" type="bus"/>
    <trip id="bus259" depart="82.88" from="-473691604#2" to="4902394#4" type="bus"/>
    <trip id="bus260" depart="83.20" from="-386278899" to="327956373#0" type="bus"/>
    <trip id="bus261" depart="83.52" from="340955661" to="327956373#1" type="bus"/>
    <trip id="bus262" depart="83.84" from="4559074#6" to="28788365#2" type="bus"/>
    <trip id="bus263" depart="84.16" from="-27840840#4" to="511815820" type="bus"/>
    <trip id="bus264" depart="84.48" from="327764059#1" to="-327764057#2" type="bus"/>
    <trip id="bus265" depart="84.80" from="-28788361#2" to="4523224#2" type="bus"/>
    <trip id="bus266" depart="85.12" from="221893235" to="221893217#2" type="bus"/>
    <trip id="bus267" depart="85.44" from="-221893217#5" to="221893217#5" type="bus"/>
    <trip id="bus268" depart="85.76" from="-221893217#1" to="229481708#5" type="bus"/>
    <trip id="bus269" depart="86.08" from="28788370#0" to="28788371#0" type="bus"/>
    <trip id="bus270" depart="86.40" from="319453545#1" to="473691589" type="bus"/>
    <trip id="bus271" depart="86.72" from="-4902436#1" to="-249697087" type="bus"/>
    <trip id="bus272" depart="87.04" from="-28885073" to="-221893217#4" type="bus"/>
    <trip id="bus273" depart="87.36" from="-386278897" to="4902451#1" type="bus"/>
    <trip id="bus274" depart="87.68" from="327764057#0" to="15968349" type="bus"/>
    <trip id="bus275" depart="88.00" from="418990606" to="-221893214#0" type="bus"/>
    <trip id="bus276" depart="88.32" from="221893285#1" to="4902394#2" type="bus"/>
    <trip id="bus277" depart="88.64" from="-4902394#0" to="549928642#1" type="bus"/>
    <trip id="bus278" depart="88.96" from="-473691601#1" to="27570527#2" type="bus"/>
    <trip id="bus279" depart="89.28" from="27467655#0" to="487551846#2" type="bus"/>
    <trip id="bus280" depart="89.60" from="-4902436#1" to="327764059#0" type="bus"/>
    <trip id="bus281" depart="89.92" from="221893217#1" to="-249697087" type="bus"/>
    <trip id="bus282" depart="90.24" from="-27803780#2" to="-39368522#5" type="bus"/>
    <trip id="bus283" depart="90.56" from="473684642#0" to="-28788374" type="bus"/>
    <trip id="bus284" depart="90.88" from="386278899" to="319453545#1" type="bus"/>
    <trip id="bus285" depart="91.20" from="28788361#0" to="-221893257" type="bus"/>
    <trip id="bus286" depart="91.52" from="-28788382#4" to="-473684643" type="bus"/>
    <trip id="bus287" depart="91.84" from="-27840838#1" to="-386278913#0" type="bus"/>
    <trip id="bus288" depart="92.16" from="-221893217#2" to="247833368" type="bus"/>
    <trip id="bus289" depart="92.48" from="28788371#0" to="549928648#2" type="bus"/>
    <trip id="bus290" depart="92.80" from="-27840838#0" to="473691601#1" type="bus"/>
    <trip id="bus291" depart="93.12" from="4559074#5" to="-27490679#0" type="bus"/>
    <trip id="bus292" depart="93.44" from="-221893219#2" to="221893285#1" type="bus"/>
    <trip id="bus293" depart="93.76" from="-28788361#2" to="221893285#1" type="bus"/>
    <trip id="bus294" depart="94.08" from="-162043157#1" to="-221893219#0" type="bus"/>
    <trip id="bus295" depart="94.40" from="27490680" to="-327764057#0" type="bus"/>
    <trip id="bus296" depart="94.72" from="39368522#0" to="247833369#1" type="bus"/>
    <trip id="bus297" depart="95.04" from="-221893285#1" to="4902378#1" type="bus"/>
    <trip id="bus298" depart="95.36" from="-511815819" to="229481708#5" type="bus"/>
    <trip id="bus299" depart="95.68" from="-221893217#5" to="-28788374" type="bus"/>
    <trip id="bus300" depart="96.00" from="96097834" to="518474788" type="bus"/>
    <trip id="bus301" depart="96.32" from="-28788365#1" to="511815818" type="bus"/>
    <trip id="bus302" depart="96.64" from="-27467656" to="27840840#0" type="bus"/>
    <trip id="bus303" depart="96.96" from="-221893267" to="4902394#6" type="bus"/>
    <trip id="bus304" depart="97.28" from="27570527#1" to="39368524#0" type="bus"/>
    <trip id="bus305" depart="97.60" from="380438949#1" to="-549928648#1" type="bus"/>
    <trip id="bus306" depart="97.92" from="179109642#1" to="229481708#5" type="bus"/>
    <trip id="bus307" depart="98.24" from="-39368522#4" to="-28885073" type="bus"/>
    <trip id="bus308" depart="98.56" from="-221893217#0" to="327754983" type="bus"/>
    <trip id="bus309" depart="98.88" from="27467656" to="-487551846#1" type="bus"/>
    <trip id="bus310" depart="99.20" from="28788382#5" to="-221893219#0" type="bus"/>
    <trip id="bus311" depart="99.52" from="-27570527#1" to="319453545#1" type="bus"/>
    <trip id="bus312" depart="99.84" from="221893214#0" to="-327764057#0" type="bus"/>
    <trip id="bus313" depart="100.16" from="-4902394#6" to="4734476#0" type="bus"/>
    <trip id="bus314" depart="100.48" from="221893214#1" to="-28788382#3" type="bus"/>
    <trip id="bus315" depart="100.80" from="386278913#0" to="-27490679#0" type="bus"/>
    <trip id="bus316" depart="101.12" from="-511815818" to="-327764057#0" type="bus"/>
    <trip id="bus317" depart="101.44" from="39368524#2" to="28788361#1" type="bus"/>
    <trip id="bus318" depart="101.76" from="-473684642#1" to="402922224" type="bus"/>
    <trip id="bus319" depart="102.08" from="344144147#0" to="8369310" type="bus"/>
    <trip id="bus320" depart="102.40" from="340955661" to="27570528#3" type="bus"/>
    <trip id="bus321" depart="102.72" from="-473691589" to="386278913#2" type="bus"/>
    <trip id="bus322" depart="103.04" from="-27840841#3" to="28788384#0" type="bus"/>
    <trip id="bus323" depart="103.36" from="473691609" to="4902451#1" type="bus"/>
    <trip id="bus324" depart="103.68" from="-27840840#4" to="-221893215#2" type="bus"/>
    <trip id="bus325" depart="104.00" from="473691609" to="28885070#0" type="bus"/>
    <trip id="bus326" depart="104.32" from="4734475#3" to="247833368" type="bus"/>
    <trip id="bus327" depart="104.64" from="4523238#1" to="179109642#0" type="bus"/>
    <trip id="bus328" depart="104.96" from="4902433" to="-473691601#0" type="bus"/>
    <trip id="bus329" depart="105.28" from="-473691589" to="4902394#6" type="bus"/>
    <trip id="bus330" depart="105.60" from="27840838#1" to="-27570527#0" type="bus"/>
    <trip id="bus331" depart="105.92" from="549917967" to="549928642#0" type="bus"/>
    <trip id="bus332" depart="106.24" from="161392067" to="15968349" type="bus"/>
    <trip id="bus333" depart="106.56" from="39368522#0" to="-511815820" type="bus"/>
    <trip id="bus334" depart="106.88" from="-4902451#1" to="518474788" type="bus"/>
    <trip id="bus335" depart="107.20" from="28788382#5" to="-473684643" type="bus"/>
    <trip id="bus336" depart="107.52" from="221893232" to="475330829" type="bus"/>
    <trip id="bus337" depart="107.84" from="221893217#4" to="475330829" type="bus"/>
    <trip id="bus338" depart="108.16" from="327764057#2" to="28788382#2" type="bus"/>
    <trip id="bus339" depart="108.48" from="-473691594" to="221893267" type="bus"/>
    <trip id="bus340" depart="108.80" from="-341224412" to="487551846#2" type="bus"/>
    <trip id="bus341" depart="109.12" from="-28885040#3" to="162043157#1" type="bus"/>
    <trip id="bus342" depart="109.44" from="-386278913#2" to="341224412" type="bus"/>
    <trip id="bus343" depart="109.76" from="4734475#7" to="221893219#2" type="bus"/>
    <trip id="bus344" depart="110.08" from="4523238#0" to="-4902394#0" type="bus"/>
    <trip id="bus345" depart="110.40" from="221893240" to="-473684642#1" type="bus"/>
    <trip id="bus346" depart="110.72" from="28885073" to="487551846#1" type="bus"/>
    <trip id="bus347" depart="111.04" from="327761947" to="4523224#1" type="bus"/>
    <trip id="bus348" depart="111.36" from="28788361#0" to="-221893214#0" type="bus"/>