<?xml version="1.0"?>
<!-- generated on 2018-01-01 11:39:49.143102 by $Id: randomTrips.py 23999 2017-04-21 09:04:47Z behrisch $
  options: <doubleminus>fringe-factor 2 <doubleminus>prefix bic <doubleminus>vehicle-class bicycle -n /media/jefferson/Dados/workspace/GoodsTracker/vanet/sp/place/osm.net.xml -r /media/jefferson/Dados/workspace/GoodsTracker/vanet/sp/place/osm.bicycle.rou.xml -p 4.76 -e 3600 -o /media/jefferson/Dados/workspace/GoodsTracker/vanet/sp/place/osm.bicycle.trips.xml
-->
<routes xmlns:xsi="http://www.w3.org/2001/XMLSchema-instance" xsi:noNamespaceSchemaLocation="http://sumo.dlr.de/xsd/routes_file.xsd">
    <vType id="bicycle" vClass="bicycle" />
    <trip id="bic0" depart="0.00" from="487551846#1" to="549917967" type="bicycle"/>
    <trip id="bic1" depart="4.76" from="221893235" to="319447428" type="bicycle"/>
    <trip id="bic2" depart="9.52" from="-473691604#2" to="-221893214#0" type="bicycle"/>
    <trip id="bic3" depart="14.28" from="-4902394#1" to="229481708#1" type="bicycle"/>
    <trip id="bic4" depart="19.04" from="511815820" to="247833370#0" type="bicycle"/>
    <trip id="bic5" depart="23.80" from="28788361#2" to="28885055#0" type="bicycle"/>
    <trip id="bic6" depart="28.56" from="518474575" to="-221893217#1" type="bicycle"/>
    <trip id="bic7" depart="33.32" from="-27840840#1" to="-162043156" type="bicycle"/>
    <trip id="bic8" depart="38.08" from="473691594" to="28788382#3" type="bicycle"/>
    <trip id="bic9" depart="42.84" from="221893215#2" to="-473684643" type="bicycle"/>
    <trip id="bic10" depart="47.60" from="548651990#0" to="4734475#0" type="bicycle"/>
    <trip id="bic11" depart="52.36" from="-162043157#0" to="-27467655#0" type="bicycle"/>
    <trip id="bic12" depart="57.12" from="39368523" to="511815818" type="bicycle"/>
    <trip id="bic13" depart="61.88" from="27490679#0" to="-39368522#5" type="bicycle"/>
    <trip id="bic14" depart="66.64" from="4734475#3" to="4734475#6" type="bicycle"/>
    <trip id="bic15" depart="71.40" from="27467655#1" to="221893217#2" type="bicycle"/>
    <trip id="bic16" depart="76.16" from="221893215#2" to="323823408" type="bicycle"/>
    <trip id="bic17" depart="80.92" from="-386278913#1" to="28788382#4" type="bicycle"/>
    <trip id="bic18" depart="85.68" from="221893219#1" to="27490680" type="bicycle"/>
    <trip id="bic19" depart="90.44" from="341224415#0" to="229481708#0" type="bicycle"/>
    <trip id="bic20" depart="95.20" from="-511815820" to="4806304" type="bicycle"/>
    <trip id="bic21" depart="99.96" from="27840841#2" to="4902378#1" type="bicycle"/>
    <trip id="bic22" depart="104.72" from="-221893285#0" to="-27840840#2" type="bicycle"/>
    <trip id="bic23" depart="109.48" from="473691590#1" to="-28788382#5" type="bicycle"/>
    <trip id="bic24" depart="114.24" from="549928648#1" to="4734475#0" type="bicycle"/>
    <trip id="bic25" depart="119.00" from="-28885070#0" to="28788371#0" type="bicycle"/>
    <trip id="bic26" depart="123.76" from="28788382#0" to="27570528#4" type="bicycle"/>
    <trip id="bic27" depart="128.52" from="39368524#2" to="-221893217#1" type="bicycle"/>
    <trip id="bic28" depart="133.28" from="28885040#3" to="27467655#3" type="bicycle"/>
    <trip id="bic29" depart="138.04" from="-221893219#1" to="27840840#2" type="bicycle"/>
    <trip id="bic30" depart="142.80" from="-27570527#3" to="247833369#0" type="bicycle"/>
    <trip id="bic31" depart="147.56" from="27490679#0" to="27840841#3" type="bicycle"/>
    <trip id="bic32" depart="152.32" from="-340955667" to="-27467656" type="bicycle"/>
    <trip id="bic33" depart="157.08" from="418990606" to="-27570528#4" type="bicycle"/>
    <trip id="bic34" depart="161.84" from="473684642#0" to="-28885040#3" type="bicycle"/>
    <trip id="bic35" depart="166.60" from="28788371#1" to="-27840840#0" type="bicycle"/>
    <trip id="bic36" depart="171.36" from="-27840841#3" to="161392064#1" type="bicycle"/>
    <trip id="bic37" depart="176.12" from="161389765" to="27840840#0" type="bicycle"/>
    <trip id="bic38" depart="180.88" from="4559074#6" to="319453544" type="bicycle"/>
    <trip id="bic39" depart="185.64" from="221893215#1" to="161389758" type="bicycle"/>
    <trip id="bic40" depart="190.40" from="-386278913#2" to="-4902453" type="bicycle"/>
    <trip id="bic41" depart="195.16" from="-27840838#2" to="386278897" type="bicycle"/>
    <trip id="bic42" depart="199.92" from="28885070#1" to="-28885055#0" type="bicycle"/>
    <trip id="bic43" depart="204.68" from="161392059#2" to="-549928648#1" type="bicycle"/>
    <trip id="bic44" depart="209.44" from="-473691601#0" to="247833368" type="bicycle"/>
    <trip id="bic45" depart="214.20" from="28885040#2" to="-27803780#0" type="bicycle"/>
    <trip id="bic46" depart="218.96" from="4902433" to="473691604#2" type="bicycle"/>
    <trip id="bic47" depart="223.72" from="249870999#0" to="4902436#1" type="bicycle"/>
    <trip id="bic48" depart="228.48" from="487551846#1" to="-4902451#0" type="bicycle"/>
    <trip id="bic49" depart="233.24" from="-27840840#3" to="4734476#1" type="bicycle"/>
    <trip id="bic50" depart="238.00" from="-221893214#1" to="549928642#1" type="bicycle"/>
    <trip id="bic51" depart="242.76" from="401773369" to="4902440#0" type="bicycle"/>
    <trip id="bic52" depart="247.52" from="-27840841#2" to="-28885070#0" type="bicycle"/>
    <trip id="bic53" depart="252.28" from="161392064#5" to="380438949#0" type="bicycle"/>
    <trip id="bic54" depart="257.04" from="380438949#1" to="27570528#4" type="bicycle"/>
    <trip id="bic55" depart="261.80" from="-28885040#0" to="4734475#7" type="bicycle"/>
    <trip id="bic56" depart="266.56" from="-221893237" to="-386278899" type="bicycle"/>
    <trip id="bic57" depart="271.32" from="39368522#1" to="-221893214#1" type="bicycle"/>
    <trip id="bic58" depart="276.08" from="28788361#0" to="161392064#0" type="bicycle"/>
    <trip id="bic59" depart="280.84" from="161389756#1" to="161389756#1" type="bicycle"/>
    <trip id="bic60" depart="285.60" from="-327764055" to="28788384#1" type="bicycle"/>
    <trip id="bic61" depart="290.36" from="-28788384#1" to="4902378#1" type="bicycle"/>
    <trip id="bic62" depart="295.12" from="-4734472" to="473691604#0" type="bicycle"/>
    <trip id="bic63" depart="299.88" from="28788374" to="-4734472" type="bicycle"/>
    <trip id="bic64" depart="304.64" from="473691594" to="247833368" type="bicycle"/>
    <trip id="bic65" depart="309.40" from="341224415#1" to="28788370#0" type="bicycle"/>
    <trip id="bic66" depart="314.16" from="28788382#2" to="4902374#0" type="bicycle"/>
    <trip id="bic67" depart="318.92" from="-221893237" to="473691589" type="bicycle"/>
    <trip id="bic68" depart="323.68" from="4902453" to="4734475#6" type="bicycle"/>
    <trip id="bic69" depart="328.44" from="221893219#1" to="-4902433" type="bicycle"/>
    <trip id="bic70" depart="333.20" from="249697090#4" to="249871000" type="bicycle"/>
    <trip id="bic71" depart="337.96" from="4559074#0" to="4902451#1" type="bicycle"/>
    <trip id="bic72" depart="342.72" from="27840840#2" to="-28788361#1" type="bicycle"/>
    <trip id="bic73" depart="347.48" from="319453543#1" to="475330829" type="bicycle"/>
    <trip id="bic74" depart="352.24" from="-4902436#1" to="340955664" type="bicycle"/>
    <trip id="bic75" depart="357.00" from="4902374#1" to="-473684643" type="bicycle"/>
    <trip id="bic76" depart="361.76" from="39368522#5" to="475330829" type="bicycle"/>
    <trip id="bic77" depart="366.52" from="27570527#3" to="229481708#1" type="bicycle"/>
    <trip id="bic78" depart="371.28" from="27467655#2" to="319453543#2" type="bicycle"/>
    <trip id="bic79" depart="376.04" from="249697090#0" to="-28885040#0" type="bicycle"/>
    <trip id="bic80" depart="380.80" from="-221893267" to="-28788370#0" type="bicycle"/>
    <trip id="bic81" depart="385.56" from="-473691609" to="39368523" type="bicycle"/>
    <trip id="bic82" depart="390.32" from="511815819" to="327764055" type="bicycle"/>
    <trip id="bic83" depart="395.08" from="28788366" to="-28788365#2" type="bicycle"/>
    <trip id="bic84" depart="399.84" from="-162043157#0" to="28788361#2" type="bicycle"/>
    <trip id="bic85" depart="404.60" from="161392059#2" to="27570527#1" type="bicycle"/>
    <trip id="bic86" depart="409.36" from="-511815820" to="-487551846#0" type="bicycle"/>
    <trip id="bic87" depart="414.12" from="-221893235" to="-221893217#0" type="bicycle"/>
    <trip id="bic88" depart="418.88" from="221893257" to="-473691594" type="bicycle"/>
    <trip id="bic89" depart="423.64" from="-27570527#1" to="-27467655#1" type="bicycle"/>
    <trip id="bic90" depart="428.40" from="-473691604#2" to="-221893217#1" type="bicycle"/>
    <trip id="bic91" depart="433.16" from="-179109642#2" to="221893267" type="bicycle"/>
    <trip id="bic92" depart="437.92" from="39368522#0" to="4734475#4" type="bicycle"/>
    <trip id="bic93" depart="442.68" from="319447428" to="518474788" type="bicycle"/>
    <trip id="bic94" depart="447.44" from="28788382#0" to="162043157#1" type="bicycle"/>
    <trip id="bic95" depart="452.20" from="344144147#1" to="-27840838#2" type="bicycle"/>
    <trip id="bic96" depart="456.96" from="-27840836" to="-28788382#0" type="bicycle"/>
    <trip id="bic97" depart="461.72" from="27840838#1" to="4902394#6" type="bicycle"/>
    <trip id="bic98" depart="466.48" from="-4902394#6" to="549928642#0" type="bicycle"/>
    <trip id="bic99" depart="471.24" from="549928642#0" to="161389756#1" type="bicycle"/>
    <trip id="bic100" depart="476.00" from="4902378#0" to="-221893215#1" type="bicycle"/>
    <trip id="bic101" depart="480.76" from="549928646#0" to="549928648#1" type="bicycle"/>
    <trip id="bic102" depart="485.52" from="-473691601#1" to="-27840838#0" type="bicycle"/>
    <trip id="bic103" depart="490.28" from="319447428" to="327764059#0" type="bicycle"/>
    <trip id="bic104" depart="495.04" from="-221893217#1" to="-221893257" type="bicycle"/>
    <trip id="bic105" depart="499.80" from="4328546#1" to="4734476#1" type="bicycle"/>
    <trip id="bic106" depart="504.56" from="-27467655#1" to="28788368#0" type="bicycle"/>
    <trip id="bic107" depart="509.32" from="249697087" to="-27840836" type="bicycle"/>
    <trip id="bic108" depart="514.08" from="4902394#4" to="28788370#0" type="bicycle"/>
    <trip id="bic109" depart="518.84" from="221893279" to="-28885074#0" type="bicycle"/>
    <trip id="bic110" depart="523.60" from="-28788382#5" to="229481708#5" type="bicycle"/>
    <trip id="bic111" depart="528.36" from="28885055#0" to="-179109642#2" type="bicycle"/>
    <trip id="bic112" depart="533.12" from="-473691590#0" to="-487551846#0" type="bicycle"/>
    <trip id="bic113" depart="537.88" from="28788382#4" to="27570528#4" type="bicycle"/>
    <trip id="bic114" depart="542.64" from="-4902394#5" to="473684642#1" type="bicycle"/>
    <trip id="bic115" depart="547.40" from="4902394#2" to="221893217#4" type="bicycle"/>
    <trip id="bic116" depart="552.16" from="247833369#0" to="-473691604#1" type="bicycle"/>
    <trip id="bic117" depart="556.92" from="221893215#0" to="-27840840#1" type="bicycle"/>
    <trip id="bic118" depart="561.68" from="221893215#0" to="27570528#3" type="bicycle"/>
    <trip id="bic119" depart="566.44" from="549928642#0" to="162043157#0" type="bicycle"/>
    <trip id="bic120" depart="571.20" from="-28885040#1" to="-341224416" type="bicycle"/>
    <trip id="bic121" depart="575.96" from="-162043157#1" to="380438949#1" type="bicycle"/>
    <trip id="bic122" depart="580.72" from="-490522132" to="161392064#5" type="bicycle"/>
    <trip id="bic123" depart="585.48" from="-327764055" to="319447428" type="bicycle"/>
    <trip id="bic124" depart="590.24" from="344144147#1" to="549928635" type="bicycle"/>
    <trip id="bic125" depart="595.00" from="473691604#1" to="-473684643" type="bicycle"/>
    <trip id="bic126" depart="599.76" from="473684643" to="28885070#2" type="bicycle"/>
    <trip id="bic127" depart="604.52" from="549928648#1" to="-39368522#0" type="bicycle"/>
    <trip id="bic128" depart="609.28" from="4902378#1" to="28788384#0" type="bicycle"/>
    <trip id="bic129" depart="614.04" from="27490679#0" to="28885040#3" type="bicycle"/>
    <trip id="bic130" depart="618.80" from="221893217#1" to="386278897" type="bicycle"/>
    <trip id="bic131" depart="623.56" from="-27840838#2" to="28885070#0" type="bicycle"/>
    <trip id="bic132" depart="628.32" from="27803780#0" to="-28788374" type="bicycle"/>
    <trip id="bic133" depart="633.08" from="249697090#0" to="-39368524#2" type="bicycle"/>
    <trip id="bic134" depart="637.84" from="-27570528#2" to="4734475#6" type="bicycle"/>
    <trip id="bic135" depart="642.60" from="161392070" to="161392064#0" type="bicycle"/>
    <trip id="bic136" depart="647.36" from="386278913#0" to="-28885040#2" type="bicycle"/>
    <trip id="bic137" depart="652.12" from="341224416" to="28788382#0" type="bicycle"/>
    <trip id="bic138" depart="656.88" from="39368522#2" to="229481708#3" type="bicycle"/>
    <trip id="bic139" depart="661.64" from="-28885040#1" to="-27840840#1" type="bicycle"/>
    <trip id="bic140" depart="666.40" from="4559074#3" to="27840838#0" type="bicycle"/>
    <trip id="bic141" depart="671.16" from="-221893217#2" to="28788382#2" type="bicycle"/>
    <trip id="bic142" depart="675.92" from="39368522#4" to="-473691604#1" type="bicycle"/>
    <trip id="bic143" depart="680.68" from="-473691609" to="28885070#1" type="bicycle"/>
    <trip id="bic144" depart="685.44" from="327761947" to="27840838#1" type="bicycle"/>
    <trip id="bic145" depart="690.20" from="327764057#0" to="-27570527#2" type="bicycle"/>
    <trip id="bic146" depart="694.96" from="27490679#0" to="39368524#2" type="bicycle"/>
    <trip id="bic147" depart="699.72" from="229481708#3" to="-473691594" type="bicycle"/>
    <trip id="bic148" depart="704.48" from="-179109642#2" to="39368522#4" type="bicycle"/>
    <trip id="bic149" depart="709.24" from="161389762" to="549345534" type="bicycle"/>
    <trip id="bic150" depart="714.00" from="27467655#1" to="341224412" type="bicycle"/>
    <trip id="bic151" depart="718.76" from="27490679#0" to="487551846#0" type="bicycle"/>
    <trip id="bic152" depart="723.52" from="-27840836" to="-341224415#1" type="bicycle"/>
    <trip id="bic153" depart="728.28" from="-4902394#6" to="-221893217#1" type="bicycle"/>
    <trip id="bic154" depart="733.04" from="4734474" to="249870999#0" type="bicycle"/>
    <trip id="bic155" depart="737.80" from="-27840841#3" to="-4902453" type="bicycle"/>
    <trip id="bic156" depart="742.56" from="386278913#0" to="518474788" type="bicycle"/>
    <trip id="bic157" depart="747.32" from="28885055#1" to="221893285#0" type="bicycle"/>
    <trip id="bic158" depart="752.08" from="-27840838#1" to="27803780#1" type="bicycle"/>
    <trip id="bic159" depart="756.84" from="221893285#1" to="473691589" type="bicycle"/>
    <trip id="bic160" depart="761.60" from="27840841#1" to="39368522#4" type="bicycle"/>
    <trip id="bic161" depart="766.36" from="473691604#1" to="-27570528#4" type="bicycle"/>
    <trip id="bic162" depart="771.12" from="-221893215#0" to="27467655#3" type="bicycle"/>
    <trip id="bic163" depart="775.88" from="-39368524#0" to="473684642#1" type="bicycle"/>
    <trip id="bic164" depart="780.64" from="27803780#0" to="-341224415#0" type="bicycle"/>
    <trip id="bic165" depart="785.40" from="179109642#0" to="-39368522#2" type="bicycle"/>
    <trip id="bic166" depart="790.16" from="28885040#2" to="221893237" type="bicycle"/>
    <trip id="bic167" depart="794.92" from="323823408" to="-28788361#1" type="bicycle"/>
    <trip id="bic168" depart="799.68" from="-27803780#1" to="4734475#0" type="bicycle"/>
    <trip id="bic169" depart="804.44" from="249871000" to="473691601#0" type="bicycle"/>
    <trip id="bic170" depart="809.20" from="-221893219#2" to="-340955664" type="bicycle"/>
    <trip id="bic171" depart="813.96" from="-221893217#2" to="-221893240" type="bicycle"/>
    <trip id="bic172" depart="818.72" from="221893217#2" to="-28788365#1" type="bicycle"/>
    <trip id="bic173" depart="823.48" from="-473684642#1" to="4902451#1" type="bicycle"/>
    <trip id="bic174" depart="828.24" from="418990606" to="229481708#5" type="bicycle"/>
    <trip id="bic175" depart="833.00" from="28885040#0" to="-249697087" type="bicycle"/>
    <trip id="bic176" depart="837.76" from="27467655#0" to="-28788361#1" type="bicycle"/>
    <trip id="bic177" depart="842.52" from="-4902436#0" to="-4902433" type="bicycle"/>
    <trip id="bic178" depart="847.28" from="221893215#2" to="229481708#5" type="bicycle"/>
    <trip id="bic179" depart="852.04" from="28885070#0" to="-39368524#1" type="bicycle"/>
    <trip id="bic180" depart="856.80" from="4902394#5" to="-4734472" type="bicycle"/>
    <trip id="bic181" depart="861.56" from="-27840841#1" to="4734474" type="bicycle"/>
    <trip id="bic182" depart="866.32" from="161389765" to="-4902394#3" type="bicycle"/>
    <trip id="bic183" depart="871.08" from="161389765" to="28788384#1" type="bicycle"/>
    <trip id="bic184" depart="875.84" from="-473691590#0" to="27840840#1" type="bicycle"/>
    <trip id="bic185" depart="880.60" from="-518474788" to="319453544" type="bicycle"/>
    <trip id="bic186" depart="885.36" from="28885040#3" to="549345534" type="bicycle"/>
    <trip id="bic187" depart="890.12" from="-27840840#3" to="-511815820" type="bicycle"/>
    <trip id="bic188" depart="894.88" from="27840841#1" to="4523224#2" type="bicycle"/>
    <trip id="bic189" depart="899.64" from="4734475#6" to="221893217#5" type="bicycle"/>
    <trip id="bic190" depart="904.40" from="4328546#0" to="-28788366" type="bicycle"/>
    <trip id="bic191" depart="909.16" from="-28788368#0" to="-27840840#0" type="bicycle"/>
    <trip id="bic192" depart="913.92" from="-28788382#3" to="-221893215#0" type="bicycle"/>
    <trip id="bic193" depart="918.68" from="4902436#0" to="473691589" type="bicycle"/>
    <trip id="bic194" depart="923.44" from="-473691590#0" to="-28788384#0" type="bicycle"/>
    <trip id="bic195" depart="928.20" from="249697090#2" to="-27840840#0" type="bicycle"/>
    <trip id="bic196" depart="932.96" from="4902378#0" to="-27490679#1" type="bicycle"/>
    <trip id="bic197" depart="937.72" from="-386278913#0" to="221893285#1" type="bicycle"/>
    <trip id="bic198" depart="942.48" from="4902374#2" to="380438949#1" type="bicycle"/>
    <trip id="bic199" depart="947.24" from="418990606" to="28885070#1" type="bicycle"/>
    <trip id="bic200" depart="952.00" from="549917967" to="28788361#2" type="bicycle"/>
    <trip id="bic201" depart="956.76" from="-27840840#4" to="-39368522#0" type="bicycle"/>
    <trip id="bic202" depart="961.52" from="-27570528#0" to="4734474" type="bicycle"/>
    <trip id="bic203" depart="966.28" from="27570528#4" to="27570528#4" type="bicycle"/>
    <trip id="bic204" depart="971.04" from="4902394#4" to="4328546#1" type="bicycle"/>
    <trip id="bic205" depart="975.80" from="-27840840#4" to="-341224416" type="bicycle"/>
    <trip id="bic206" depart="980.56" from="221893285#1" to="-28885040#2" type="bicycle"/>
    <trip id="bic207" depart="985.32" from="221893217#2" to="28788370#1" type="bicycle"/>
    <trip id="bic208" depart="990.08" from="518474575" to="-221893219#0" type="bicycle"/>
    <trip id="bic209" depart="994.84" from="-27467656" to="-221893215#1" type="bicycle"/>
    <trip id="bic210" depart="999.60" from="4734476#0" to="27840841#0" type="bicycle"/>
    <trip id="bic211" depart="1004.36" from="4902416#2" to="-27840841#0" type="bicycle"/>
    <trip id="bic212" depart="1009.12" from="-39368522#1" to="179109642#0" type="bicycle"/>
    <trip id="bic213" depart="1013.88" from="161392059#1" to="28788382#1" type="bicycle"/>
    <trip id="bic214" depart="1018.64" from="-386278897" to="-4902394#2" type="bicycle"/>
    <trip id="bic215" depart="1023.40" from="221893217#2" to="549928642#1" type="bicycle"/>
    <trip id="bic216" depart="1028.16" from="-221893215#0" to="4523224#2" type="bicycle"/>
    <trip id="bic217" depart="1032.92" from="27490679#1" to="28788361#2" type="bicycle"/>
    <trip id="bic218" depart="1037.68" from="-4902436#1" to="511815818" type="bicycle"/>
    <trip id="bic219" depart="1042.44" from="-511815818" to="487551846#1" type="bicycle"/>
    <trip id="bic220" depart="1047.20" from="-386278913#2" to="340955664" type="bicycle"/>
    <trip id="bic221" depart="1051.96" from="549928642#0" to="487551846#2" type="bicycle"/>
    <trip id="bic222" depart="1056.72" from="221893219#0" to="4902474" type="bicycle"/>
    <trip id="bic223" depart="1061.48" from="-221893225" to="-249697087" type="bicycle"/>
    <trip id="bic224" depart="1066.24" from="4523238#1" to="386278913#2" type="bicycle"/>
    <trip id="bic225" depart="1071.00" from="319453543#0" to="-27840841#2" type="bicycle"/>
    <trip id="bic226" depart="1075.76" from="28788382#5" to="249697090#2" type="bicycle"/>
    <trip id="bic227" depart="1080.52" from="473684643" to="-27840838#2" type="bicycle"/>
    <trip id="bic228" depart="1085.28" from="28788371#0" to="473691604#1" type="bicycle"/>
    <trip id="bic229" depart="1090.04" from="319453543#2" to="4902436#0" type="bicycle"/>
    <trip id="bic230" depart="1094.80" from="-221893217#1" to="-28788365#2" type="bicycle"/>
    <trip id="bic231" depart="1099.56" from="-473691604#1" to="327764055" type="bicycle"/>
    <trip id="bic232" depart="1104.32" from="-28788365#0" to="327761948#0" type="bicycle"/>
    <trip id="bic233" depart="1109.08" from="4734475#0" to="-28788374" type="bicycle"/>
    <trip id="bic234" depart="1113.84" from="-473691604#0" to="28885070#2" type="bicycle"/>
    <trip id="bic235" depart="1118.60" from="4902394#4" to="473691604#0" type="bicycle"/>
    <trip id="bic236" depart="1123.36" from="-473691590#0" to="319447428" type="bicycle"/>
    <trip id="bic237" depart="1128.12" from="-28885040#4" to="-162043157#0" type="bicycle"/>
    <trip id="bic238" depart="1132.88" from="-4902394#6" to="28788370#1" type="bicycle"/>
    <trip id="bic239" depart="1137.64" from="27840840#1" to="4902451#1" type="bicycle"/>
    <trip id="bic240" depart="1142.40" from="27570527#2" to="327764059#1" type="bicycle"/>
    <trip id="bic241" depart="1147.16" from="28788365#0" to="341224412" type="bicycle"/>
    <trip id="bic242" depart="1151.92" from="-221893285#0" to="28788368#0" type="bicycle"/>
    <trip id="bic243" depart="1156.68" from="4328546#0" to="319453544" type="bicycle"/>
    <trip id="bic244" depart="1161.44" from="-487551846#2" to="-548651990#1" type="bicycle"/>
    <trip id="bic245" depart="1166.20" from="4559074#5" to="327764055" type="bicycle"/>
    <trip id="bic246" depart="1170.96" from="319447428" to="-28885073" type="bicycle"/>
    <trip id="bic247" depart="1175.72" from="549928648#3" to="161389756#1" type="bicycle"/>
    <trip id="bic248" depart="1180.48" from="-27840838#1" to="39368524#2" type="bicycle"/>
    <trip id="bic249" depart="1185.24" from="221893215#2" to="-39368522#0" type="bicycle"/>
    <trip id="bic250" depart="1190.00" from="96097794" to="161392064#1" type="bicycle"/>
    <trip id="bic251" depart="1194.76" from="221893215#2" to="549928642#1" type="bicycle"/>
    <trip id="bic252" depart="1199.52" from="161392065" to="-28885073" type="bicycle"/>
    <trip id="bic253" depart="1204.28" from="327764059#0" to="327761948#0" type="bicycle"/>
    <trip id="bic254" depart="1209.04" from="-221893217#2" to="327764057#2" type="bicycle"/>
    <trip id="bic255" depart="1213.80" from="340955661" to="327764057#2" type="bicycle"/>
    <trip id="bic256" depart="1218.56" from="28885040#0" to="162043157#0" type="bicycle"/>
    <trip id="bic257" depart="1223.32" from="-4902394#6" to="-4902453" type="bicycle"/>
    <trip id="bic258" depart="1228.08" from="221893285#0" to="221893217#2" type="bicycle"/>
    <trip id="bic259" depart="1232.84" from="27570527#0" to="-28788371#1" type="bicycle"/>
    <trip id="bic260" depart="1237.60" from="221893237" to="-341224415#0" type="bicycle"/>
    <trip id="bic261" depart="1242.36" from="-487551846#2" to="4902394#6" type="bicycle"/>
    <trip id="bic262" depart="1247.12" from="-511815820" to="96097794" type="bicycle"/>
    <trip id="bic263" depart="1251.88" from="4328546#0" to="161392059#1" type="bicycle"/>
    <trip id="bic264" depart="1256.64" from="327956373#1" to="4734476#0" type="bicycle"/>
    <trip id="bic265" depart="1261.40" from="27467655#3" to="179109642#2" type="bicycle"/>
    <trip id="bic266" depart="1266.16" from="161392064#5" to="-28788371#0" type="bicycle"/>
    <trip id="bic267" depart="1270.92" from="249697090#4" to="4734472" type="bicycle"/>
    <trip id="bic268" depart="1275.68" from="221893237" to="28885070#2" type="bicycle"/>
    <trip id="bic269" depart="1280.44" from="-490522132" to="27803780#0" type="bicycle"/>
    <trip id="bic270" depart="1285.20" from="249697090#1" to="161392064#5" type="bicycle"/>
    <trip id="bic271" depart="1289.96" from="473691590#1" to="549928642#0" type="bicycle"/>
    <trip id="bic272" depart="1294.72" from="-28788365#0" to="473691607" type="bicycle"/>
    <trip id="bic273" depart="1299.48" from="221893217#0" to="28885040#4" type="bicycle"/>
    <trip id="bic274" depart="1304.24" from="28788374" to="221893215#2" type="bicycle"/>
    <trip id="bic275" depart="1309.00" from="511815819" to="27570528#2" type="bicycle"/>
    <trip id="bic276" depart="1313.76" from="-4902394#4" to="-28788370#0" type="bicycle"/>
    <trip id="bic277" depart="1318.52" from="221893285#1" to="-27467655#2" type="bicycle"/>
    <trip id="bic278" depart="1323.28" from="27803780#0" to="-27467655#1" type="bicycle"/>
    <trip id="bic279" depart="1328.04" from="28885040#0" to="4734475#5" type="bicycle"/>
    <trip id="bic280" depart="1332.80" from="27467656" to="340955664" type="bicycle"/>
    <trip id="bic281" depart="1337.56" from="161392070" to="-27467655#2" type="bicycle"/>
    <trip id="bic282" depart="1342.32" from="221893285#0" to="327764057#1" type="bicycle"/>
    <trip id="bic283" depart="1347.08" from="-28788371#1" to="-473691594" type="bicycle"/>
    <trip id="bic284" depart="1351.84" from="-27570528#4" to="-221893217#2" type="bicycle"/>
    <trip id="bic285" depart="1356.60" from="-221893219#1" to="-27570528#3" type="bicycle"/>
    <trip id="bic286" depart="1361.36" from="28788382#3" to="-28788368#0" type="bicycle"/>
    <trip id="bic287" depart="1366.12" from="549345534" to="-28788365#1" type="bicycle"/>
    <trip id="bic288" depart="1370.88" from="418990606" to="4902416#2" type="bicycle"/>
    <trip id="bic289" depart="1375.64" from="161392064#5" to="161392069#1" type="bicycle"/>
    <trip id="bic290" depart="1380.40" from="549928635" to="-28885040#1" type="bicycle"/>
    <trip id="bic291" depart="1385.16" from="-473691589" to="249697090#0" type="bicycle"/>
    <trip id="bic292" depart="1389.92" from="549928646#0" to="-27840840#1" type="bicycle"/>
    <trip id="bic293" depart="1394.68" from="-549928646#0" to="15968349" type="bicycle"/>
    <trip id="bic294" depart="1399.44" from="-473691601#1" to="-548651990#1" type="bicycle"/>
    <trip id="bic295" depart="1404.20" from="4523238#0" to="28885040#1" type="bicycle"/>
    <trip id="bic296" depart="1408.96" from="-28885040#3" to="4902416#2" type="bicycle"/>
    <trip id="bic297" depart="1413.72" from="161392064#1" to="249697090#2" type="bicycle"/>
    <trip id="bic298" depart="1418.48" from="27570528#2" to="475330829" type="bicycle"/>
    <trip id="bic299" depart="1423.24" from="4734475#6" to="475330829" type="bicycle"/>
    <trip id="bic300" depart="1428.00" from="341224416" to="386278913#2" type="bicycle"/>
    <trip id="bic301" depart="1432.76" from="319453545#1" to="-341224415#1" type="bicycle"/>
    <trip id="bic302" depart="1437.52" from="4734475#6" to="-179109642#1" type="bicycle"/>
    <trip id="bic303" depart="1442.28" from="327764057#0" to="229481708#5" type="bicycle"/>
    <trip id="bic304" depart="1447.04" from="-221893215#1" to="-28788384#0" type="bicycle"/>
    <trip id="bic305" depart="1451.80" from="-27467655#1" to="319447428" type="bicycle"/>
    <trip id="bic306" depart="1456.56" from="4734472" to="28885070#1" type="bicycle"/>
    <trip id="bic307" depart="1461.32" from="-341224412" to="-28885040#4" type="bicycle"/>
    <trip id="bic308" depart="1466.08" from="327764057#0" to="-221893225" type="bicycle"/>
    <trip id="bic309" depart="1470.84" from="341224415#0" to="-27840840#3" type="bicycle"/>
    <trip id="bic310" depart="1475.60" from="4559074#3" to="-28788365#0" type="bicycle"/>
    <trip id="bic311" depart="1480.36" from="-4902394#6" to="27570528#2" type="bicycle"/>
    <trip id="bic312" depart="1485.12" from="549928648#1" to="-487551846#0" type="bicycle"/>
    <trip id="bic313" depart="1489.88" from="-39368522#4" to="4902451#1" type="bicycle"/>
    <trip id="bic314" depart="1494.64" from="247833371#1" to="28885040#0" type="bicycle"/>
    <trip id="bic315" depart="1499.40" from="4902394#1" to="327764059#0" type="bicycle"/>
    <trip id="bic316" depart="1504.16" from="-221893232" to="548651990#1" type="bicycle"/>
    <trip id="bic317" depart="1508.92" from="-27803780#1" to="-473684642#1" type="bicycle"/>
    <trip id="bic318" depart="1513.68" from="4902374#2" to="475330829" type="bicycle"/>
    <trip id="bic319" depart="1518.44" from="-27840841#2" to="-221893217#4" type="bicycle"/>
    <trip id="bic320" depart="1523.20" from="-221893217#1" to="386278913#2" type="bicycle"/>
    <trip id="bic321" depart="1527.96" from="549345534" to="327764059#0" type="bicycle"/>
    <trip id="bic322" depart="1532.72" from="-386278913#2" to="27840841#1" type="bicycle"/>
    <trip id="bic323" depart="1537.48" from="-27467655#3" to="4559074#5" type="bicycle"/>
    <trip id="bic324" depart="1542.24" from="27467655#3" to="549928642#1" type="bicycle"/>
    <trip id="bic325" depart="1547.00" from="-4902451#0" to="-28885040#2" type="bicycle"/>
    <trip id="bic326" depart="1551.76" from="-386278899" to="27570527#3" type="bicycle"/>