<?xml version="1.0"?>
<!-- generated on 2018-01-01 11:39:42.568818 by $Id: randomTrips.py 23999 2017-04-21 09:04:47Z behrisch $
  options: <doubleminus>fringe-factor 5 <doubleminus>prefix tru <doubleminus>vehicle-class truck -n /media/jefferson/Dados/workspace/GoodsTracker/vanet/sp/place/osm.net.xml -r /media/jefferson/Dados/workspace/GoodsTracker/vanet/sp/place/osm.truck.rou.xml -p 0.64 -e 3600 -o /media/jefferson/Dados/workspace/GoodsTracker/vanet/sp/place/osm.truck.trips.xml
-->
<routes xmlns:xsi="http://www.w3.org/2001/XMLSchema-instance" xsi:noNamespaceSchemaLocation="http://sumo.dlr.de/xsd/routes_file.xsd">
    <vType id="truck" vClass="truck" />
    <trip id="tru0" depart="0.00" from="-27490679#1" to="-28788370#1" type="truck"/>
    <trip id="tru1" depart="0.64" from="28788382#1" to="-27570528#3" type="truck"/>
    <trip id="tru2" depart="1.28" from="380438949#1" to="386278897" type="truck"/>
    <trip id="tru3" depart="1.92" from="39368522#0" to="386278913#2" type="truck"/>
    <trip id="tru4" depart="2.56" from="28885074#0" to="27840841#3" type="truck"/>
    <trip id="tru5" depart="3.20" from="-28885040#1" to="-28885070#1" type="truck"/>
    <trip id="tru6" depart="3.84" from="229481708#0" to="319453545#0" type="truck"/>
    <trip id="tru7" depart="4.48" from="-386278913#2" to="4806304" type="truck"/>
    <trip id="tru8" depart="5.12" from="4806304" to="4328546#1" type="truck"/>
    <trip id="tru9" depart="5.76" from="-8154723" to="161392064#0" type="truck"/>
    <trip id="tru10" depart="6.40" from="27570527#1" to="27840840#4" type="truck"/>
    <trip id="tru11" depart="7.04" from="473684643" to="-39368522#0" type="truck"/>
    <trip id="tru12" depart="7.68" from="-487551846#2" to="-28788374" type="truck"/>
    <trip id="tru13" depart="8.32" from="511815820" to="-473684643" type="truck"/>
    <trip id="tru14" depart="8.96" from="340955661" to="4559007" type="truck"/>
    <trip id="tru15" depart="9.60" from="162043156" to="473691604#2" type="truck"/>
    <trip id="tru16" depart="10.24" from="4902416#2" to="-27467655#0" type="truck"/>
    <trip id="tru17" depart="10.88" from="28885040#2" to="511815818" type="truck"/>
    <trip id="tru18" depart="11.52" from="27490680" to="221893219#2" type="truck"/>
    <trip id="tru19" depart="12.16" from="4734475#3" to="475330829" type="truck"/>
    <trip id="tru20" depart="12.80" from="-27570528#0" to="-4902433" type="truck"/>
    <trip id="tru21" depart="13.44" from="28885073" to="4902374#1" type="truck"/>
    <trip id="tru22" depart="14.08" from="-221893219#1" to="549928642#1" type="truck"/>
    <trip id="tru23" depart="14.72" from="4559074#6" to="386278913#2" type="truck"/>
    <trip id="tru24" depart="15.36" from="27490679#0" to="-27467655#0" type="truck"/>
    <trip id="tru25" depart="16.00" from="-473691601#1" to="327764057#1" type="truck"/>
    <trip id="tru26" depart="16.64" from="-473691609" to="-27570527#1" type="truck"/>
    <trip id="tru27" depart="17.28" from="-473691589" to="-549928648#2" type="truck"/>
    <trip id="tru28" depart="17.92" from="327956373#1" to="549928646#0" type="truck"/>
    <trip id="tru29" depart="18.56" from="-327764057#1" to="247833370#0" type="truck"/>
    <trip id="tru30" depart="19.20" from="-340955662" to="39368522#2" type="truck"/>
    <trip id="tru31" depart="19.84" from="-28885040#2" to="-549928648#2" type="truck"/>
    <trip id="tru32" depart="20.48" from="-221893285#1" to="27570527#1" type="truck"/>
    <trip id="tru33" depart="21.12" from="-473691594" to="15968349" type="truck"/>
    <trip id="tru34" depart="21.76" from="418990606" to="473691589" type="truck"/>
    <trip id="tru35" depart="22.40" from="-27840840#4" to="-27840840#2" type="truck"/>
    <trip id="tru36" depart="23.04" from="28885073" to="39368522#5" type="truck"/>
    <trip id="tru37" depart="23.68" from="221893219#0" to="229481708#5" type="truck"/>
    <trip id="tru38" depart="24.32" from="229481708#3" to="221893217#4" type="truck"/>
    <trip id="tru39" depart="24.96" from="28788382#2" to="386278913#2" type="truck"/>
    <trip id="tru40" depart="25.60" from="473691607" to="28788382#0" type="truck"/>
    <trip id="tru41" depart="26.24" from="221893232" to="-548651990#0" type="truck"/>
    <trip id="tru42" depart="26.88" from="27840840#2" to="-162043156" type="truck"/>
    <trip id="tru43" depart="27.52" from="-549928648#2" to="27840841#3" type="truck"/>
    <trip id="tru44" depart="28.16" from="-4902394#6" to="39368522#4" type="truck"/>
    <trip id="tru45" depart="28.80" from="549928642#0" to="-327764057#0" type="truck"/>
    <trip id="tru46" depart="29.44" from="-386278897" to="39368522#2" type="truck"/>
    <trip id="tru47" depart="30.08" from="-27570528#4" to="4902451#1" type="truck"/>
    <trip id="tru48" depart="30.72" from="344144147#0" to="28788382#4" type="truck"/>
    <trip id="tru49" depart="31.36" from="39368524#1" to="475330829" type="truck"/>
    <trip id="tru50" depart="32.00" from="221893219#0" to="27490679#1" type="truck"/>
    <trip id="tru51" depart="32.64" from="380438949#0" to="473691604#2" type="truck"/>
    <trip id="tru52" depart="33.28" from="28788365#2" to="386278913#2" type="truck"/>
    <trip id="tru53" depart="33.92" from="-28885055#1" to="-249697087" type="truck"/>
    <trip id="tru54" depart="34.56" from="247833371#1" to="-221893285#1" type="truck"/>
    <trip id="tru55" depart="35.20" from="327956373#1" to="386278913#2" type="truck"/>
    <trip id="tru56" depart="35.84" from="548651990#0" to="-28788371#0" type="truck"/>
    <trip id="tru57" depart="36.48" from="-518474788" to="28885070#1" type="truck"/>
    <trip id="tru58" depart="37.12" from="548651990#1" to="28885040#5" type="truck"/>
    <trip id="tru59" depart="37.76" from="-27840841#1" to="-28788365#2" type="truck"/>
    <trip id="tru60" depart="38.40" from="221893257" to="327764053" type="truck"/>
    <trip id="tru61" depart="39.04" from="-27840841#3" to="161389756#1" type="truck"/>
    <trip id="tru62" depart="39.68" from="-386278897" to="511815818" type="truck"/>
    <trip id="tru63" depart="40.32" from="-221893219#2" to="473691589" type="truck"/>
    <trip id="tru64" depart="40.96" from="319453544" to="-221893219#1" type="truck"/>
    <trip id="tru65" depart="41.60" from="549928646#0" to="-221893215#1" type="truck"/>
    <trip id="tru66" depart="42.24" from="221893235" to="27570527#3" type="truck"/>
    <trip id="tru67" depart="42.88" from="39368523" to="28885040#4" type="truck"/>
    <trip id="tru68" depart="43.52" from="27490679#0" to="28788365#1" type="truck"/>
    <trip id="tru69" depart="44.16" from="28788384#0" to="4902394#2" type="truck"/>
    <trip id="tru70" depart="44.80" from="-28788371#0" to="96097794" type="truck"/>
    <trip id="tru71" depart="45.44" from="221893240" to="549928642#1" type="truck"/>
    <trip id="tru72" depart="46.08" from="549928642#0" to="-549928648#0" type="truck"/>
    <trip id="tru73" depart="46.72" from="249697087" to="473691590#1" type="truck"/>
    <trip id="tru74" depart="47.36" from="473684643" to="-221893235" type="truck"/>
    <trip id="tru75" depart="48.00" from="549928648#0" to="-27803780#2" type="truck"/>
    <trip id="tru76" depart="48.64" from="4902433" to="-221893257" type="truck"/>
    <trip id="tru77" depart="49.28" from="-27840836" to="39368522#1" type="truck"/>
    <trip id="tru78" depart="49.92" from="28788361#0" to="-27803780#0" type="truck"/>
    <trip id="tru79" depart="50.56" from="-27840840#4" to="4734490" type="truck"/>
    <trip id="tru80" depart="51.20" from="28885055#0" to="4734476#1" type="truck"/>
    <trip id="tru81" depart="51.84" from="27490679#0" to="-473691601#0" type="truck"/>
    <trip id="tru82" depart="52.48" from="28788365#1" to="229481708#2" type="truck"/>
    <trip id="tru83" depart="53.12" from="-39368522#4" to="-327764057#1" type="truck"/>
    <trip id="tru84" depart="53.76" from="27467656" to="386278897" type="truck"/>
    <trip id="tru85" depart="54.40" from="-28885040#2" to="4902436#0" type="truck"/>
    <trip id="tru86" depart="55.04" from="4902433" to="4559074#6" type="truck"/>
    <trip id="tru87" depart="55.68" from="28885040#2" to="4328546#2" type="truck"/>
    <trip id="tru88" depart="56.32" from="28885040#1" to="-27570527#3" type="truck"/>
    <trip id="tru89" depart="56.96" from="-28788361#2" to="341224412" type="truck"/>
    <trip id="tru90" depart="57.60" from="28788382#2" to="221893219#2" type="truck"/>
    <trip id="tru91" depart="58.24" from="39368522#2" to="4523238#1" type="truck"/>
    <trip id="tru92" depart="58.88" from="-221893217#1" to="-39368524#1" type="truck"/>
    <trip id="tru93" depart="59.52" from="27840841#2" to="-28788361#2" type="truck"/>
    <trip id="tru94" depart="60.16" from="96097794" to="249870999#1" type="truck"/>
    <trip id="tru95" depart="60.80" from="-4902394#4" to="4902416#2" type="truck"/>
    <trip id="tru96" depart="61.44" from="245546867" to="221893215#2" type="truck"/>
    <trip id="tru97" depart="62.08" from="473691604#0" to="-341224415#1" type="truck"/>
    <trip id="tru98" depart="62.72" from="-28885040#5" to="4523224#2" type="truck"/>
    <trip id="tru99" depart="63.36" from="247833370#1" to="-511815820" type="truck"/>
    <trip id="tru100" depart="64.00" from="-4902394#6" to="27803780#2" type="truck"/>
    <trip id="tru101" depart="64.64" from="179109642#0" to="327754983" type="truck"/>
    <trip id="tru102" depart="65.28" from="27840840#1" to="-487551846#0" type="truck"/>
    <trip id="tru103" depart="65.92" from="-27840840#4" to="4902416#2" type="truck"/>
    <trip id="tru104" depart="66.56" from="221893219#0" to="-28885074#0" type="truck"/>
    <trip id="tru105" depart="67.20" from="39368522#0" to="15968349" type="truck"/>
    <trip id="tru106" depart="67.84" from="4559074#1" to="319453545#1" type="truck"/>
    <trip id="tru107" depart="68.48" from="27570527#0" to="4734476#1" type="truck"/>
    <trip id="tru108" depart="69.12" from="-27840840#2" to="27840840#4" type="truck"/>
    <trip id="tru109" depart="69.76" from="-28788365#2" to="-548651990#0" type="truck"/>
    <trip id="tru110" depart="70.40" from="-27840841#0" to="249697090#1" type="truck"/>
    <trip id="tru111" depart="71.04" from="-490522132" to="327764057#1" type="truck"/>
    <trip id="tru112" depart="71.68" from="-28885040#3" to="-4902453" type="truck"/>
    <trip id="tru113" depart="72.32" from="-27570528#1" to="247833368" type="truck"/>
    <trip id="tru114" depart="72.96" from="-28788361#2" to="-28885040#2" type="truck"/>
    <trip id="tru115" depart="73.60" from="402922224" to="-518474575" type="truck"/>
    <trip id="tru116" depart="74.24" from="-27840841#1" to="-27570528#2" type="truck"/>
    <trip id="tru117" depart="74.88" from="27467655#1" to="341224412" type="truck"/>
    <trip id="tru118" depart="75.52" from="-221893225" to="-28788361#1" type="truck"/>
    <trip id="tru119" depart="76.16" from="28788382#5" to="518474788" type="truck"/>
    <trip id="tru120" depart="76.80" from="-549928648#2" to="247833369#0" type="truck"/>
    <trip id="tru121" depart="77.44" from="-341224412" to="221893219#1" type="truck"/>
    <trip id="tru122" depart="78.08" from="401773369" to="327764055" type="truck"/>
    <trip id="tru123" depart="78.72" from="319453545#0" to="-28788370#1" type="truck"/>
    <trip id="tru124" depart="79.36" from="-221893217#0" to="-327764057#2" type="truck"/>
    <trip id="tru125" depart="80.00" from="-4902394#5" to="-27840840#3" type="truck"/>
    <trip id="tru126" depart="80.64" from="323823408" to="249870999#1" type="truck"/>
    <trip id="tru127" depart="81.28" from="340955661" to="-39368522#1" type="truck"/>
    <trip id="tru128" depart="81.92" from="162043157#0" to="4902451#1" type="truck"/>
    <trip id="tru129" depart="82.56" from="221893215#1" to="39368524#0" type="truck"/>
    <trip id="tru130" depart="83.20" from="-162043156" to="-28885040#5" type="truck"/>
    <trip id="tru131" depart="83.84" from="4902474" to="-327764057#1" type="truck"/>
    <trip id="tru132" depart="84.48" from="4559381" to="549928642#1" type="truck"/>
    <trip id="tru133" depart="85.12" from="-4902394#6" to="340955664" type="truck"/>
    <trip id="tru134" depart="85.76" from="27490679#0" to="-28788361#1" type="truck"/>
    <trip id="tru135" depart="86.40" from="-4902451#1" to="-28788361#2" type="truck"/>
    <trip id="tru136" depart="87.04" from="327956373#1" to="-28788361#0" type="truck"/>
    <trip id="tru137" depart="87.68" from="4328546#2" to="490522132" type="truck"/>
    <trip id="tru138" depart="88.32" from="27570527#0" to="39368522#5" type="truck"/>
    <trip id="tru139" depart="88.96" from="344144147#1" to="-27490679#0" type="truck"/>
    <trip id="tru140" depart="89.60" from="-386278897" to="323823408" type="truck"/>
    <trip id="tru141" depart="90.24" from="27490679#0" to="28788382#0" type="truck"/>
    <trip id="tru142" depart="90.88" from="4523238#0" to="28885070#1" type="truck"/>
    <trip id="tru143" depart="91.52" from="-327764057#1" to="27570528#4" type="truck"/>
    <trip id="tru144" depart="92.16" from="327956374" to="249870999#1" type="truck"/>
    <trip id="tru145" depart="92.80" from="39368524#1" to="-221893219#0" type="truck"/>
    <trip id="tru146" depart="93.44" from="-4902451#1" to="-4902394#2" type="truck"/>
    <trip id="tru147" depart="94.08" from="28788382#1" to="39368522#1" type="truck"/>
    <trip id="tru148" depart="94.72" from="161389764" to="-28788382#1" type="truck"/>
    <trip id="tru149" depart="95.36" from="549928646#0" to="249871000" type="truck"/>
    <trip id="tru150" depart="96.00" from="4328546#0" to="-28885070#1" type="truck"/>
    <trip id="tru151" depart="96.64" from="28788384#0" to="221893219#2" type="truck"/>
    <trip id="tru152" depart="97.28" from="-4902394#6" to="-39368522#5" type="truck"/>
    <trip id="tru153" depart="97.92" from="-27467655#3" to="161392069#1" type="truck"/>
    <trip id="tru154" depart="98.56" from="-28788384#1" to="475330829" type="truck"/>
    <trip id="tru155" depart="99.20" from="-221893219#2" to="28885040#5" type="truck"/>
    <trip id="tru156" depart="99.84" from="249870999#0" to="28788370#0" type="truck"/>
    <trip id="tru157" depart="100.48" from="249697090#1" to="-548651990#0" type="truck"/>
    <trip id="tru158" depart="101.12" from="4328546#0" to="221893235" type="truck"/>
    <trip id="tru159" depart="101.76" from="-27840841#1" to="249870999#1" type="truck"/>
    <trip id="tru160" depart="102.40" from="402922224" to="229481708#5" type="truck"/>
    <trip id="tru161" depart="103.04" from="549917967" to="4734488" type="truck"/>
    <trip id="tru162" depart="103.68" from="28788384#1" to="4734475#5" type="truck"/>
    <trip id="tru163" depart="104.32" from="511815820" to="27840836" type="truck"/>
    <trip id="tru164" depart="104.96" from="-490522132" to="386278913#2" type="truck"/>
    <trip id="tru165" depart="105.60" from="473684643" to="-4902453" type="truck"/>
    <trip id="tru166" depart="106.24" from="4328546#1" to="341224412" type="truck"/>
    <trip id="tru167" depart="106.88" from="249697090#1" to="319453545#1" type="truck"/>
    <trip id="tru168" depart="107.52" from="249697090#0" to="221893285#1" type="truck"/>
    <trip id="tru169" depart="108.16" from="161392066" to="27570527#1" type="truck"/>
    <trip id="tru170" depart="108.80" from="340955661" to="-221893240" type="truck"/>
    <trip id="tru171" depart="109.44" from="473691601#0" to="28788366" type="truck"/>
    <trip id="tru172" depart="110.08" from="327764057#0" to="386278913#1" type="truck"/>
    <trip id="tru173" depart="110.72" from="27490679#0" to="-221893214#0" type="truck"/>
    <trip id="tru174" depart="111.36" from="28885055#1" to="-487551846#0" type="truck"/>
    <trip id="tru175" depart="112.00" from="39368522#0" to="-27570528#3" type="truck"/>
    <trip id="tru176" depart="112.64" from="4902374#0" to="-28788382#1" type="truck"/>
    <trip id="tru177" depart="113.28" from="341224416" to="386278913#2" type="truck"/>
    <trip id="tru178" depart="113.92" from="-28788382#1" to="4902374#1" type="truck"/>
    <trip id="tru179" depart="114.56" from="-221893217#5" to="28885055#1" type="truck"/>
    <trip id="tru180" depart="115.20" from="-28788361#1" to="27803780#2" type="truck"/>
    <trip id="tru181" depart="115.84" from="27490679#1" to="401773369" type="truck"/>
    <trip id="tru182" depart="116.48" from="-327764057#2" to="247833371#1" type="truck"/>
    <trip id="tru183" depart="117.12" from="27490679#0" to="-28788368#0" type="truck"/>
    <trip id="tru184" depart="117.76" from="-4734472" to="-27467655#1" type="truck"/>
    <trip id="tru185" depart="118.40" from="96097834" to="-473684643" type="truck"/>
    <trip id="tru186" depart="119.04" from="-27840840#4" to="549928648#1" type="truck"/>
    <trip id="tru187" depart="119.68" from="28788384#1" to="-28788382#4" type="truck"/>
    <trip id="tru188" depart="120.32" from="-28788370#1" to="-221893237" type="truck"/>
    <trip id="tru189" depart="120.96" from="221893215#1" to="4523224#1" type="truck"/>
    <trip id="tru190" depart="121.60" from="221893285#1" to="-27840838#1" type="truck"/>
    <trip id="tru191" depart="122.24" from="4734490" to="161392065" type="truck"/>
    <trip id="tru192" depart="122.88" from="-386278897" to="-27570527#0" type="truck"/>
    <trip id="tru193" depart="123.52" from="-27840841#1" to="221893219#2" type="truck"/>
    <trip id="tru194" depart="124.16" from="221893237" to="4902374#2" type="truck"/>
    <trip id="tru195" depart="124.80" from="245546867" to="28885070#1" type="truck"/>
    <trip id="tru196" depart="125.44" from="247833371#1" to="549928648#2" type="truck"/>
    <trip id="tru197" depart="126.08" from="-4902436#1" to="247833370#1" type="truck"/>
    <trip id="tru198" depart="126.72" from="341224415#1" to="549345534" type="truck"/>
    <trip id="tru199" depart="127.36" from="27803780#0" to="-249697087" type="truck"/>
    <trip id="tru200" depart="128.00" from="161392064#3" to="4734475#5" type="truck"/>
    <trip id="tru201" depart="128.64" from="221893257" to="-221893285#1" type="truck"/>
    <trip id="tru202" depart="129.28" from="27467655#2" to="4902451#1" type="truck"/>
    <trip id="tru203" depart="129.92" from="418990606" to="245546867" type="truck"/>
    <trip id="tru204" depart="130.56" from="549928648#0" to="28788382#1" type="truck"/>
    <trip id="tru205" depart="131.20" from="221893214#0" to="-27840838#2" type="truck"/>
    <trip id="tru206" depart="131.84" from="-28788368#0" to="-28885040#5" type="truck"/>
    <trip id="tru207" depart="132.48" from="4734488" to="386278897" type="truck"/>
    <trip id="tru208" depart="133.12" from="162043156" to="4902451#1" type="truck"/>
    <trip id="tru209" depart="133.76" from="327764057#0" to="-27490679#0" type="truck"/>
    <trip id="tru210" depart="134.40" from="418990606" to="4902451#1" type="truck"/>
    <trip id="tru211" depart="135.04" from="-162043157#0" to="221893217#5" type="truck"/>
    <trip id="tru212" depart="135.68" from="96097834" to="-28788365#0" type="truck"/>
    <trip id="tru213" depart="136.32" from="28788382#1" to="-27840838#0" type="truck"/>
    <trip id="tru214" depart="136.96" from="-27840840#4" to="-327764057#0" type="truck"/>
    <trip id="tru215" depart="137.60" from="27570527#0" to="-341224416" type="truck"/>
    <trip id="tru216" depart="138.24" from="-27840840#0" to="319453543#1" type="truck"/>
    <trip id="tru217" depart="138.88" from="340955661" to="161392068" type="truck"/>
    <trip id="tru218" depart="139.52" from="-473691604#2" to="28788371#1" type="truck"/>
    <trip id="tru219" depart="140.16" from="27570527#0" to="39368524#1" type="truck"/>
    <trip id="tru220" depart="140.80" from="-28788382#2" to="-327764057#0" type="truck"/>
    <trip id="tru221" depart="141.44" from="4902453" to="-487551846#0" type="truck"/>
    <trip id="tru222" depart="142.08" from="4806303" to="249697090#1" type="truck"/>
    <trip id="tru223" depart="142.72" from="386278913#0" to="27570528#3" type="truck"/>
    <trip id="tru224" depart="143.36" from="418990606" to="27840840#4" type="truck"/>
    <trip id="tru225" depart="144.00" from="28885070#0" to="4902474" type="truck"/>
    <trip id="tru226" depart="144.64" from="4734475#3" to="27840841#3" type="truck"/>
    <trip id="tru227" depart="145.28" from="39368522#0" to="549928635" type="truck"/>
    <trip id="tru228" depart="145.92" from="-221893215#2" to="549345534" type="truck"/>
    <trip id="tru229" depart="146.56" from="28885040#0" to="249697090#2" type="truck"/>
    <trip id="tru230" depart="147.20" from="221893267" to="487551846#0" type="truck"/>
    <trip id="tru231" depart="147.84" from="28885040#2" to="386278913#2" type="truck"/>
    <trip id="tru232" depart="148.48" from="327764059#1" to="28788366" type="truck"/>
    <trip id="tru233" depart="149.12" from="-341224412" to="-473684643" type="truck"/>
    <trip id="tru234" depart="149.76" from="-27840841#2" to="249870999#1" type="truck"/>
    <trip id="tru235" depart="150.40" from="39368524#1" to="4523224#1" type="truck"/>
    <trip id="tru236" depart="151.04" from="340955661" to="-27840840#0" type="truck"/>
    <trip id="tru237" depart="151.68" from="-473691590#0" to="27570528#1" type="truck"/>
    <trip id="tru238" depart="152.32" from="27490679#0" to="-473684643" type="truck"/>
    <trip id="tru239" depart="152.96" from="-27840841#3" to="4902436#1" type="truck"/>
    <trip id="tru240" depart="153.60" from="-28885040#3" to="161392068" type="truck"/>
    <trip id="tru241" depart="154.24" from="-28885070#1" to="4902394#6" type="truck"/>
    <trip id="tru242" depart="154.88" from="-4902436#0" to="-341224416" type="truck"/>
    <trip id="tru243" depart="155.52" from="-27570528#1" to="-27570527#3" type="truck"/>
    <trip id="tru244" depart="156.16" from="-473691601#1" to="27803780#1" type="truck"/>
    <trip id="tru245" depart="156.80" from="4559381" to="4806303" type="truck"/>
    <trip id="tru246" depart="157.44" from="344144147#0" to="4902394#3" type="truck"/>
    <trip id="tru247" depart="158.08" from="473684643" to="161389762" type="truck"/>
    <trip id="tru248" depart="158.72" from="4328546#0" to="-327764057#2" type="truck"/>
    <trip id="tru249" depart="159.36" from="-4902451#0" to="249870999#1" type="truck"/>
    <trip id="tru250" depart="160.00" from="319447428" to="327956372" type="truck"/>
    <trip id="tru251" depart="160.64" from="27570527#0" to="-27467655#0" type="truck"/>
    <trip id="tru252" depart="161.28" from="-473684642#1" to="229481708#2" type="truck"/>
    <trip id="tru253" depart="161.92" from="-511815818" to="473691589" type="truck"/>
    <trip id="tru254" depart="162.56" from="27570527#0" to="161389756#1" type="truck"/>
    <trip id="tru255" depart="163.20" from="27570527#0" to="-221893215#0" type="truck"/>
    <trip id="tru256" depart="163.84" from="-221893215#1" to="386278913#2" type="truck"/>
    <trip id="tru257" depart="164.48" from="27467655#2" to="27467656" type="truck"/>
    <trip id="tru258" depart="165.12" from="-473691604#2" to="161392064#0" type="truck"/>
    <trip id="tru259" depart="165.76" from="-27803780#1" to="4734472" type="truck"/>
    <trip id="tru260" depart="166.40" from="221893257" to="4734475#0" type="truck"/>
    <trip id="tru261" depart="167.04" from="327764057#1" to="549917967" type="truck"/>
    <trip id="tru262" depart="167.68" from="4902436#0" to="-27467655#0" type="truck"/>
    <trip id="tru263" depart="168.32" from="-179109642#1" to="473691601#0" type="truck"/>
    <trip id="tru264" depart="168.96" from="161392064#3" to="28788382#0" type="truck"/>
    <trip id="tru265" depart="169.60" from="28788365#0" to="-39368522#1" type="truck"/>
    <trip id="tru266" depart="170.24" from="487551846#0" to="-27570527#0" type="truck"/>
    <trip id="tru267" depart="170.88" from="-341224412" to="-4902433" type="truck"/>
    <trip id="tru268" depart="171.52" from="27467656" to="28788365#1" type="truck"/>
    <trip id="tru269" depart="172.16" from="27570528#2" to="319453543#0" type="truck"/>
    <trip id="tru270" depart="172.80" from="247833371#1" to="4902378#1" type="truck"/>
    <trip id="tru271" depart="173.44" from="28788365#0" to="-221893257" type="truck"/>
    <trip id="tru272" depart="174.08" from="28788384#0" to="28788370#0" type="truck"/>
    <trip id="tru273" depart="174.72" from="39368522#2" to="249697090#1" type="truck"/>
    <trip id="tru274" depart="175.36" from="-4902394#6" to="-28788382#2" type="truck"/>
    <trip id="tru275" depart="176.00" from="4902433" to="518474788" type="truck"/>
    <trip id="tru276" depart="176.64" from="161392059#2" to="28885070#2" type="truck"/>
    <trip id="tru277" depart="177.28" from="-179109642#2" to="161392068" type="truck"/>
    <trip id="tru278" depart="177.92" from="473691604#0" to="4902394#6" type="truck"/>
    <trip id="tru279" depart="178.56" from="-28885055#1" to="-4902451#0" type="truck"/>
    <trip id="tru280" depart="179.20" from="27490679#0" to="473691601#1" type="truck"/>
    <trip id="tru281" depart="179.84" from="473691601#0" to="-28788382#0" type="truck"/>
    <trip id="tru282" depart="180.48" from="-221893217#2" to="4734475#3" type="truck"/>
    <trip id="tru283" depart="181.12" from="487551846#0" to="-28885073" type="truck"/>
    <trip id="tru284" depart="181.76" from="-27467655#1" to="4902416#2" type="truck"/>
    <trip id="tru285" depart="182.40" from="-27803780#0" to="4902436#1" type="truck"/>
    <trip id="tru286" depart="183.04" from="39368523" to="323823408" type="truck"/>
    <trip id="tru287" depart="183.68" from="-473691601#1" to="-28788374" type="truck"/>
    <trip id="tru288" depart="184.32" from="-27467655#1" to="-4902394#1" type="truck"/>
    <trip id="tru289" depart="184.96" from="340955664" to="221893215#2" type="truck"/>
    <trip id="tru290" depart="185.60" from="-4902436#1" to="4902394#2" type="truck"/>
    <trip id="tru291" depart="186.24" from="27570528#2" to="-27840841#2" type="truck"/>
    <trip id="tru292" depart="186.88" from="221893214#0" to="27490679#1" type="truck"/>
    <trip id="tru293" depart="187.52" from="28788382#2" to="548651990#1" type="truck"/>
    <trip id="tru294" depart="188.16" from="28788384#0" to="4902440#0" type="truck"/>
    <trip id="tru295" depart="188.80" from="-27570528#1" to="487551846#0" type="truck"/>
    <trip id="tru296" depart="189.44" from="518474575" to="4734472" type="truck"/>
    <trip id="tru297" depart="190.08" from="549928642#0" to="518474788" type="truck"/>
    <trip id="tru298" depart="190.72" from="4328546#0" to="4559074#5" type="truck"/>
    <trip id="tru299" depart="191.36" from="-473691604#2" to="-27467655#1" type="truck"/>
    <trip id="tru300" depart="192.00" from="-487551846#2" to="341224412" type="truck"/>
    <trip id="tru301" depart="192.64" from="319453543#0" to="-249697087" type="truck"/>
    <trip id="tru302" depart="193.28" from="27467655#0" to="473691601#1" type="truck"/>
    <trip id="tru303" depart="193.92" from="-28788361#2" to="4902394#1" type="truck"/>
    <trip id="tru304" depart="194.56" from="39368522#5" to="473691604#0" type="truck"/>
    <trip id="tru305" depart="195.20" from="28788384#1" to="-549928648#2" type="truck"/>
    <trip id="tru306" depart="195.84" from="247833369#1" to="473691589" type="truck"/>
    <trip id="tru307" depart="196.48" from="-327764057#1" to="8369310" type="truck"/>
    <trip id="tru308" depart="197.12" from="221893217#0" to="319453543#2" type="truck"/>
    <trip id="tru309" depart="197.76" from="221893257" to="-27570527#0" type="truck"/>
    <trip id="tru310" depart="198.40" from="161389764" to="27840838#1" type="truck"/>
    <trip id="tru311" depart="199.04" from="249697087" to="249697090#1" type="truck"/>
    <trip id="tru312" depart="199.68" from="-221893237" to="473684642#0" type="truck"/>
    <trip id="tru313" depart="200.32" from="28788371#0" to="511815818" type="truck"/>
    <trip id="tru314" depart="200.96" from="327761947" to="518474788" type="truck"/>
    <trip id="tru315" depart="201.60" from="-511815818" to="319453544" type="truck"/>
    <trip id="tru316" depart="202.24" from="344144147#0" to="161389765" type="truck"/>
    <trip id="tru317" depart="202.88" from="27570527#0" to="-27840841#2" type="truck"/>
    <trip id="tru318" depart="203.52" from="549928648#0" to="549345534" type="truck"/>
    <trip id="tru319" depart="204.16" from="-162043156" to="4902451#1" type="truck"/>
    <trip id="tru320" depart="204.80" from="-221893219#2" to="4734475#3" type="truck"/>
    <trip id="tru321" depart="205.44" from="229481708#0" to="161392068" type="truck"/>
    <trip id="tru322" depart="206.08" from="27467656" to="-473684643" type="truck"/>
    <trip id="tru323" depart="206.72" from="-27803780#2" to="-487551846#0" type="truck"/>
    <trip id="tru324" depart="207.36" from="386278913#1" to="-39368524#1" type="truck"/>
    <trip id="tru325" depart="208.00" from="179109642#2" to="28885070#0" type="truck"/>
    <trip id="tru326" depart="208.64" from="221893215#1" to="-27840840#0" type="truck"/>
    <trip id="tru327" depart="209.28" from="-487551846#1" to="221893219#2" type="truck"/>
    <trip id="tru328" depart="209.92" from="-386278897" to="249697090#3" type="truck"/>
    <trip id="tru329" depart="210.56" from="4523238#0" to="4902451#1" type="truck"/>
    <trip id="tru330" depart="211.20" from="-39368523" to="28788371#0" type="truck"/>
    <trip id="tru331" depart="211.84" from="28788374" to="249870999#1" type="truck"/>
    <trip id="tru332" depart="212.48" from="4902453" to="229481708#5" type="truck"/>
    <trip id="tru333" depart="213.12" from="327764059#1" to="-28788361#0" type="truck"/>
    <trip id="tru334" depart="213.76" from="39368523" to="490522132" type="truck"/>
    <trip id="tru335" depart="214.40" from="-386278899" to="15968349" type="truck"/>
    <trip id="tru336" depart="215.04" from="28788365#2" to="319453543#2" type="truck"/>
    <trip id="tru337" depart="215.68" from="4523224#1" to="-27467655#0" type="truck"/>
    <trip id="tru338" depart="216.32" from="-221893217#4" to="-39368522#5" type="truck"/>