<?xml version="1.0" encoding="UTF-8"?>

<!-- generated on Mon Jan  1 11:39:49 2018 by SUMO duarouter Version 0.30.0
<?xml version="1.0" encoding="UTF-8"?>

<configuration xmlns:xsi="http://www.w3.org/2001/XMLSchema-instance" xsi:noNamespaceSchemaLocation="http://sumo.dlr.de/xsd/duarouterConfiguration.xsd">

    <input>
        <net-file value="/media/jefferson/Dados/workspace/GoodsTracker/vanet/sp/place/osm.net.xml"/>
        <trip-files value="/media/jefferson/Dados/workspace/GoodsTracker/vanet/sp/place/osm.bicycle.trips.xml"/>
    </input>

    <output>
        <output-file value="/media/jefferson/Dados/workspace/GoodsTracker/vanet/sp/place/osm.bicycle.rou.xml"/>
    </output>

    <processing>
        <ignore-errors value="true"/>
    </processing>

    <time>
        <begin value="0"/>
        <end value="3600.0"/>
    </time>

    <report>
        <no-warnings value="true"/>
        <no-step-log value="true"/>
    </report>

</configuration>
-->

<routes xmlns:xsi="http://www.w3.org/2001/XMLSchema-instance" xsi:noNamespaceSchemaLocation="http://sumo.dlr.de/xsd/routes_file.xsd">
    <vType id="bicycle" vClass="bicycle"/>
    <vehicle id="bic0" type="bicycle" depart="0.00">
        <route edges="487551846#1 -487551846#1 -28788382#5 -341224415#1 -341224415#0 341224416 -28788366 -27840836 161392064#5 319453543#0 161392074 4559074#0 4559074#1 4559074#3 4559074#5 4559074#6 4559007 4902378#0 4902378#1 549917967"/>
    </vehicle>
    <vehicle id="bic1" type="bicycle" depart="4.76">
        <route edges="221893235 -221893235 -221893217#2 -221893217#1 -221893217#0 4734472 161389764 161392059#2 249697090#0 249697090#1 249697090#2 249697090#3 4734475#3 4734475#4 4734475#5 4734475#6 4734475#7 323823408 249871000 161392066 245546865 380438949#0 380438949#1 319447428"/>
    </vehicle>
    <vehicle id="bic2" type="bicycle" depart="9.52">
        <route edges="-473691604#2 -473691604#1 28885070#0 28885070#1 -340955662 -27803780#2 -27803780#1 179109642#1 28788370#0 28788371#0 28788368#0 -27490680 319453543#2 327761947 327761948#0 -27467656 221893285#0 221893285#1 511815819 221893235 -221893214#0"/>
    </vehicle>
    <vehicle id="bic3" type="bicycle" depart="14.28">
        <route edges="-4902394#1 -4902394#0 161392064#0 161392064#1 161392064#3 161392064#5 319453543#0 319453543#1 319453543#2 327761947 327761948#0 4523224#1 4523224#2 161389765 161392059#1 161392059#2 249697090#0 249697090#1 249697090#2 249697090#3 4734475#3 4734475#4 4734475#5 4734475#6 4734475#7 323823408 249871000 161392066 245546867 229481708#0 229481708#1"/>
    </vehicle>
    <vehicle id="bic5" type="bicycle" depart="23.80">
        <route edges="28788361#2 -27570528#3 27570527#3 -340955662 -27803780#2 -341224416 28885055#0"/>
    </vehicle>
    <vehicle id="bic6" type="bicycle" depart="28.56">
        <route edges="518474575 -518474575 -473691590#0 39368524#2 380438949#1 319447428 161392081#0 161392081#1 327761947 327761948#0 -27467656 221893285#0 221893285#1 511815820 -221893217#1"/>
    </vehicle>
    <vehicle id="bic7" type="bicycle" depart="33.32">
        <route edges="-27840840#1 -27840840#0 -27490680 319453543#2 327761947 327761948#0 4523224#1 4523224#2 161389765 161392059#1 161392059#2 249697090#0 249697090#1 249697090#2 249697090#3 4734475#3 4734475#4 4734475#5 4734475#6 4734475#7 323823408 249871000 161392066 245546867 229481708#0 -39368522#5 162043156 -162043156"/>
    </vehicle>
    <vehicle id="bic8" type="bicycle" depart="38.08">
        <route edges="473691594 27840838#2 27803780#0 27803780#1 -341224416 341224415#0 341224415#1 -28788382#4 -28788382#3 28788382#3"/>
    </vehicle>
    <vehicle id="bic9" type="bicycle" depart="42.84">
        <route edges="221893215#2 -221893215#2 -221893215#1 -221893215#0 -340955667 27467656 4523224#1 4523224#2 161389765 161392059#1 161392059#2 249697090#0 249697090#1 249697090#2 249697090#3 4734475#3 4734475#4 4734475#5 4734475#6 4734475#7 323823408 249871000 161392066 245546867 229481708#0 229481708#1 229481708#2 229481708#3 4806304 473684642#0 -473684643"/>
    </vehicle>
    <vehicle id="bic10" type="bicycle" depart="47.60">
        <route edges="548651990#0 548651990#1 -221893217#0 4734472 161389764 161392059#2 249697090#0 249697090#1 249697090#2 249697090#3 249697090#4 -249697087 249697087 4734475#0"/>
    </vehicle>
    <vehicle id="bic11" type="bicycle" depart="52.36">
        <route edges="-162043157#0 -162043156 -39368522#4 -518474575 -473691590#0 39368524#2 380438949#1 319447428 161392081#0 161392081#1 327761947 327761948#0 -27467656 -28885074#0 -27467655#3 -27467655#2 -27467655#1 -27467655#0"/>
    </vehicle>
    <vehicle id="bic12" type="bicycle" depart="57.12">
        <route edges="39368523 -518474575 -473691590#0 39368524#2 380438949#1 319447428 161392081#0 161392081#1 327761947 327761948#0 -27467656 340955667 221893215#0 221893215#1 221893215#2 511815818"/>
    </vehicle>
    <vehicle id="bic13" type="bicycle" depart="61.88">
        <route edges="27490679#0 -386278913#1 28788382#0 -28885040#5 -28885040#4 -28885040#3 27570527#2 27570527#3 -340955662 -27803780#2 -27803780#1 179109642#1 28788370#0 28788371#0 28788368#0 -27490680 319453543#2 327761947 327761948#0 4523224#1 4523224#2 161389765 161392059#1 161392059#2 249697090#0 249697090#1 249697090#2 249697090#3 4734475#3 4734475#4 4734475#5 4734475#6 4734475#7 323823408 249871000 161392066 245546867 229481708#0 -39368522#5"/>
    </vehicle>
    <vehicle id="bic14" type="bicycle" depart="66.64">
        <route edges="4734475#3 4734475#4 4734475#5 4734475#6"/>
    </vehicle>
    <vehicle id="bic15" type="bicycle" depart="71.40">
        <route edges="27467655#1 27467655#2 27467655#3 -221893217#5 -221893217#4 -221893217#2 221893217#2"/>
    </vehicle>
    <vehicle id="bic16" type="bicycle" depart="76.16">
        <route edges="221893215#2 -221893215#2 -221893215#1 -221893215#0 -340955667 27467656 4523224#1 4523224#2 161389765 161392059#1 161392059#2 249697090#0 249697090#1 249697090#2 249697090#3 4734475#3 4734475#4 4734475#5 4734475#6 4734475#7 323823408"/>
    </vehicle>
    <vehicle id="bic17" type="bicycle" depart="80.92">
        <route edges="-386278913#1 28788382#0 28788382#1 28788382#2 28788382#3 28788382#4"/>
    </vehicle>
    <vehicle id="bic18" type="bicycle" depart="85.68">
        <route edges="221893219#1 386278899 249697090#3 4734475#3 4734475#4 4734475#5 4734475#6 4734475#7 323823408 249871000 161392066 245546865 380438949#0 380438949#1 319447428 4559074#0 4559074#1 4559074#3 4559074#5 4559074#6 4559007 4902378#0 4902378#1 549917967 319453543#0 319453543#1 27490680"/>
    </vehicle>
    <vehicle id="bic19" type="bicycle" depart="90.44">
        <route edges="341224415#0 -341224415#0 341224416 -27803780#1 179109642#1 28788370#0 28788371#0 28788368#0 -27490680 319453543#2 327761947 327761948#0 4523224#1 4523224#2 161389765 161392059#1 161392059#2 249697090#0 249697090#1 249697090#2 249697090#3 4734475#3 4734475#4 4734475#5 4734475#6 4734475#7 323823408 249871000 161392066 245546867 229481708#0"/>
    </vehicle>
    <vehicle id="bic20" type="bicycle" depart="95.20">
        <route edges="-511815820 511815820 -221893217#1 -221893217#0 4734472 161389764 161392059#2 249697090#0 249697090#1 249697090#2 249697090#3 4734475#3 4734475#4 4734475#5 4734475#6 4734475#7 323823408 249871000 161392066 245546867 229481708#0 229481708#1 229481708#2 229481708#3 4806304"/>
    </vehicle>
    <vehicle id="bic21" type="bicycle" depart="99.96">
        <route edges="27840841#2 -27840841#2 28788382#4 -341224415#1 -341224415#0 341224416 -28788366 -27840836 161392064#5 319453543#0 161392074 4559074#0 4559074#1 4559074#3 4559074#5 4559074#6 4559007 4902378#0 4902378#1"/>
    </vehicle>
    <vehicle id="bic22" type="bicycle" depart="104.72">
        <route edges="-221893285#0 27467656 4523224#1 4523224#2 161389765 161392059#1 161392059#2 249697090#0 249697090#1 249697090#2 249697090#3 4734475#3 4734475#4 4734475#5 4734475#6 4734475#7 323823408 249871000 161392066 245546865 380438949#0 380438949#1 319447428 327956372 327956373#0 327956373#1 327956374 161392064#3 27840836 -27840840#2"/>
    </vehicle>
    <vehicle id="bic23" type="bicycle" depart="109.48">
        <route edges="473691590#1 -473691590#1 -473691590#0 39368524#2 380438949#1 319447428 327956372 327956373#0 327956373#1 327956374 161392064#3 27840836 28788366 -341224416 341224415#0 341224415#1 28788382#5 -28788382#5"/>
    </vehicle>
    <vehicle id="bic24" type="bicycle" depart="114.24">
        <route edges="549928648#1 -28885040#1 -28885040#0 161392064#1 161392064#3 161392064#5 319453543#0 319453543#1 319453543#2 327761947 327761948#0 4523224#1 4523224#2 161389765 161392059#1 161392059#2 249697090#0 249697090#1 249697090#2 249697090#3 249697090#4 -249697087 249697087 4734475#0"/>
    </vehicle>
    <vehicle id="bic25" type="bicycle" depart="119.00">
        <route edges="-28885070#0 28885070#0 28885070#1 -340955662 -27803780#2 -27803780#1 179109642#1 28788370#0 28788371#0"/>
    </vehicle>
    <vehicle id="bic26" type="bicycle" depart="123.76">
        <route edges="28788382#0 -28885040#5 -28885040#4 28788361#2 27570528#4"/>
    </vehicle>
    <vehicle id="bic27" type="bicycle" depart="128.52">
        <route edges="39368524#2 380438949#1 319447428 161392081#0 161392081#1 327761947 327761948#0 -27467656 221893285#0 221893285#1 511815820 -221893217#1"/>
    </vehicle>
    <vehicle id="bic28" type="bicycle" depart="133.28">
        <route edges="28885040#3 -28885040#3 27570527#2 27570527#3 -340955662 -27803780#2 -27803780#1 179109642#1 28788370#0 28788371#0 28788368#0 -27490680 319453543#2 327761947 327761948#0 -27467656 -28885074#0 -27467655#3 27467655#3"/>
    </vehicle>
    <vehicle id="bic29" type="bicycle" depart="138.04">
        <route edges="-221893219#1 221893219#1 386278899 249697090#3 4734475#3 4734475#4 4734475#5 4734475#6 4734475#7 323823408 249871000 161392066 245546865 380438949#0 380438949#1 319447428 327956372 327956373#0 327956373#1 327956374 161392064#3 27840836 -27840840#2 27840840#2"/>
    </vehicle>
    <vehicle id="bic30" type="bicycle" depart="142.80">
        <route edges="-27570527#3 27570527#3 -340955662 -27803780#2 -27803780#1 179109642#1 28788370#0 28788371#0 28788368#0 -27490680 319453543#2 327761947 327761948#0 4523224#1 4523224#2 161389765 161392059#1 161392059#2 249697090#0 249697090#1 249697090#2 249697090#3 4734475#3 4734475#4 4734475#5 4734475#6 4734475#7 323823408 249871000 161392066 245546867 229481708#0 229481708#1 229481708#2 229481708#3 4806304 327754983 247833369#0"/>
    </vehicle>
    <vehicle id="bic31" type="bicycle" depart="147.56">
        <route edges="27490679#0 27490679#1 327764053 28788382#2 28788382#3 27840841#2 27840841#3"/>
    </vehicle>
    <vehicle id="bic32" type="bicycle" depart="152.32">
        <route edges="-340955667 27467656 -27467656"/>
    </vehicle>
    <vehicle id="bic33" type="bicycle" depart="157.08">
        <route edges="418990606 4902378#0 4902474 327956373#1 327956374 27570528#0 27570528#1 27570528#2 27570528#3 27570528#4 -27570528#4"/>
    </vehicle>
    <vehicle id="bic34" type="bicycle" depart="161.84">
        <route edges="473684642#0 -473684642#0 327754983 247833369#0 247833369#1 245546865 380438949#0 380438949#1 319447428 327956372 327956373#0 327956373#1 327956374 27570528#0 27570528#1 27570528#2 -27570527#2 28885040#3 -28885040#3"/>
    </vehicle>
    <vehicle id="bic35" type="bicycle" depart="166.60">
        <route edges="28788371#1 -27840840#0"/>
    </vehicle>
    <vehicle id="bic36" type="bicycle" depart="171.36">
        <route edges="-27840841#3 -27840841#2 -27840841#1 -27840841#0 340955662 -27570527#3 -27570528#2 -549928648#2 -28885040#1 -28885040#0 161392064#1"/>
    </vehicle>
    <vehicle id="bic37" type="bicycle" depart="176.12">
        <route edges="161389765 161392059#1 161392059#2 249697090#0 249697090#1 249697090#2 249697090#3 4734475#3 4734475#4 4734475#5 4734475#6 4734475#7 323823408 249871000 161392066 245546865 380438949#0 380438949#1 319447428 4559074#0 4559074#1 4559074#3 4559074#5 4559074#6 4559007 4902378#0 4902378#1 549917967 319453543#0 319453543#1 27490680 27840840#0"/>
    </vehicle>
    <vehicle id="bic38" type="bicycle" depart="180.88">
        <route edges="4559074#6 4559007 4902378#0 4902378#1 549917967 319453543#0 319453543#1 319453543#2 327761947 327761948#0 4523224#1 4523224#2 319453544"/>
    </vehicle>
    <vehicle id="bic39" type="bicycle" depart="185.64">
        <route edges="221893215#1 -221893215#1 -221893215#0 -340955667 27467656 4523224#1 4523224#2 161389765 161392059#1 161392059#2 161389758"/>
    </vehicle>
    <vehicle id="bic40" type="bicycle" depart="190.40">
        <route edges="-386278913#2 -386278913#1 -386278913#0 -4902394#5 -4902394#4 -4902394#3 -4902394#2 -4902394#1 -4902394#0 549928642#0 -4902453"/>
    </vehicle>
    <vehicle id="bic41" type="bicycle" depart="195.16">
        <route edges="-27840838#2 -27840838#1 -27840838#0 -27490680 319453543#2 327761947 327761948#0 4523224#1 4523224#2 161389765 161392059#1 161392059#2 386278897"/>
    </vehicle>
    <vehicle id="bic42" type="bicycle" depart="199.92">
        <route edges="28885070#1 -340955662 -27803780#2 -341224416 28885055#0 -28885055#0"/>
    </vehicle>
    <vehicle id="bic43" type="bicycle" depart="204.68">
        <route edges="161392059#2 249697090#0 249697090#1 249697090#2 249697090#3 4734475#3 4734475#4 4734475#5 4734475#6 4734475#7 323823408 249871000 161392066 245546865 380438949#0 380438949#1 319447428 327956372 327956373#0 327956373#1 327956374 27570528#0 27570528#1 -549928648#2 -549928648#1"/>
    </vehicle>
    <vehicle id="bic45" type="bicycle" depart="214.20">
        <route edges="28885040#2 27570527#2 27570527#3 -340955662 -27803780#2 -27803780#1 -27803780#0"/>
    </vehicle>
    <vehicle id="bic46" type="bicycle" depart="218.96">
        <route edges="4902433 -549928646#0 4902394#0 4902394#1 4902394#2 4902394#3 4902394#4 327764057#1 327764057#2 327764055 473691604#0 473691604#1 473691604#2"/>
    </vehicle>
    <vehicle id="bic48" type="bicycle" depart="228.48">
        <route edges="487551846#1 -221893267 -27840841#2 -28788382#3 -473691601#0 -473691604#1 -473691604#0 -327764055 -327764057#2 -327764057#1 -4902394#4 -4902394#3 -4902394#2 -4902394#1 -4902394#0 549928646#0 4902436#0 -4902451#0"/>
    </vehicle>
    <vehicle id="bic49" type="bicycle" depart="233.24">
        <route edges="-27840840#3 -27840840#2 -27840840#1 -27840840#0 -27490680 319453543#2 327761947 327761948#0 4523224#1 4523224#2 161389765 161392059#1 161392059#2 249697090#0 249697090#1 249697090#2 249697090#3 4734475#3 4734475#4 4734475#5 4734475#6 4734475#7 323823408 249871000 161392066 245546867 229481708#0 229481708#1 229481708#2 229481708#3 4806304 327754983 4734476#0 4734476#1"/>
    </vehicle>
    <vehicle id="bic50" type="bicycle" depart="238.00">
        <route edges="-221893214#1 -221893235 -221893217#2 -221893217#1 -221893217#0 4734472 161389764 161392059#2 249697090#0 249697090#1 249697090#2 249697090#3 4734475#3 4734475#4 4734475#5 4734475#6 4734475#7 323823408 249871000 161392066 245546865 380438949#0 380438949#1 319447428 327956372 327956373#0 327956373#1 327956374 549928635 549928642#0 549928642#1"/>
    </vehicle>
    <vehicle id="bic51" type="bicycle" depart="242.76">
        <route edges="401773369 319447428 327956372 327956373#0 327956373#1 4902374#0 4902440#0"/>
    </vehicle>
    <vehicle id="bic52" type="bicycle" depart="247.52">
        <route edges="-27840841#2 -28788382#3 -473691601#0 -473691604#1 28885070#0 -28885070#0"/>
    </vehicle>
    <vehicle id="bic53" type="bicycle" depart="252.28">
        <route edges="161392064#5 319453543#0 319453543#1 319453543#2 327761947 327761948#0 4523224#1 4523224#2 161389765 161392059#1 161392059#2 249697090#0 249697090#1 249697090#2 249697090#3 4734475#3 4734475#4 4734475#5 4734475#6 4734475#7 323823408 249871000 161392066 245546865 380438949#0"/>
    </vehicle>
    <vehicle id="bic54" type="bicycle" depart="257.04">
        <route edges="380438949#1 319447428 327956372 327956373#0 327956373#1 327956374 27570528#0 27570528#1 27570528#2 27570528#3 27570528#4"/>
    </vehicle>
    <vehicle id="bic55" type="bicycle" depart="261.80">
        <route edges="-28885040#0 161392064#1 161392064#3 161392064#5 319453543#0 319453543#1 319453543#2 327761947 327761948#0 4523224#1 4523224#2 161389765 161392059#1 161392059#2 249697090#0 249697090#1 249697090#2 249697090#3 4734475#3 4734475#4 4734475#5 4734475#6 4734475#7"/>
    </vehicle>
    <vehicle id="bic56" type="bicycle" depart="266.56">
        <route edges="-221893237 -221893215#0 -340955667 27467656 4523224#1 4523224#2 161389765 161392059#1 161392059#2 249697090#0 249697090#1 249697090#2 -386278899"/>
    </vehicle>
    <vehicle id="bic57" type="bicycle" depart="271.32">
        <route edges="39368522#1 39368522#2 -518474575 -473691590#0 39368524#2 380438949#1 319447428 161392081#0 161392081#1 327761947 327761948#0 -27467656 221893285#0 221893285#1 511815819 221893235 221893214#1 -221893214#1"/>
    </vehicle>
    <vehicle id="bic58" type="bicycle" depart="276.08">
        <route edges="28788361#0 -4902394#3 -4902394#2 -4902394#1 -4902394#0 161392064#0"/>
    </vehicle>
    <vehicle id="bic59" type="bicycle" depart="280.84">
        <route edges="161389756#1"/>
    </vehicle>
    <vehicle id="bic60" type="bicycle" depart="285.60">
        <route edges="-327764055 327764055 473691604#0 473691604#1 473691601#0 28788382#3 28788382#4 -341224415#1 28788384#1"/>
    </vehicle>
    <vehicle id="bic61" type="bicycle" depart="290.36">
        <route edges="-28788384#1 -341224415#0 341224416 -28788366 -27840836 161392064#5 319453543#0 161392074 4559074#0 4559074#1 4559074#3 4559074#5 4559074#6 4559007 4902378#0 4902378#1"/>
    </vehicle>
    <vehicle id="bic62" type="bicycle" depart="295.12">
        <route edges="-4734472 4734472 161389764 161392059#2 249697090#0 249697090#1 249697090#2 249697090#3 4734475#3 4734475#4 4734475#5 4734475#6 4734475#7 323823408 249871000 161392066 245546865 380438949#0 380438949#1 319447428 327956372 327956373#0 327956373#1 327956374 27570528#0 27570528#1 27570528#2 27570528#3 27570528#4 473691604#0"/>
    </vehicle>
    <vehicle id="bic63" type="bicycle" depart="299.88">
        <route edges="28788374 327764053 473691609 -27570528#4 -27570528#3 27570527#3 -340955662 -27803780#2 -27803780#1 179109642#1 28788370#0 28788371#0 28788368#0 -27490680 319453543#2 327761947 327761948#0 4523224#1 4523224#2 161389765 8369310 -4734472"/>
    </vehicle>
    <vehicle id="bic65" type="bicycle" depart="309.40">
        <route edges="341224415#1 -341224415#1 -341224415#0 341224416 -27803780#1 179109642#1 28788370#0"/>
    </vehicle>
    <vehicle id="bic66" type="bicycle" depart="314.16">
        <route edges="28788382#2 28788382#3 28788382#4 -341224415#1 -341224415#0 341224416 -28788366 -27840836 161392064#5 319453543#0 161392074 327956372 327956373#0 327956373#1 4902374#0"/>
    </vehicle>
    <vehicle id="bic67" type="bicycle" depart="318.92">
        <route edges="-221893237 -221893215#0 -340955667 27467656 4523224#1 4523224#2 161389765 161392059#1 161392059#2 249697090#0 249697090#1 249697090#2 249697090#3 4734475#3 4734475#4 4734475#5 4734475#6 4734475#7 323823408 249871000 161392066 245546867 229481708#0 -39368522#5 -39368522#4 -39368522#2 473691589"/>
    </vehicle>
    <vehicle id="bic69" type="bicycle" depart="328.44">
        <route edges="221893219#1 386278899 249697090#3 4734475#3 4734475#4 4734475#5 4734475#6 4734475#7 323823408 249871000 161392066 245546865 380438949#0 380438949#1 319447428 327956372 327956373#0 327956373#1 4902374#0 4902374#1 4902374#2 -4902433"/>
    </vehicle>
    <vehicle id="bic70" type="bicycle" depart="333.20">
        <route edges="249697090#4 -249697087 249697087 4734475#0 4734475#3 4734475#4 4734475#5 4734475#6 4734475#7 323823408 249871000"/>
    </vehicle>
    <vehicle id="bic71" type="bicycle" depart="337.96">
        <route edges="4559074#0 4559074#1 4559074#3 4559074#5 4559074#6 4559007 4902378#0 4902474 327956373#1 4902374#0 4902374#1 4902374#2 4902436#0 4902451#1"/>
    </vehicle>
    <vehicle id="bic72" type="bicycle" depart="342.72">
        <route edges="27840840#2 28788366 27803780#2 340955662 -27570527#3 -27570527#2 28885040#3 -28788361#1"/>
    </vehicle>
    <vehicle id="bic74" type="bicycle" depart="352.24">
        <route edges="-4902436#1 -4902436#0 4902416#2 161392064#3 27840836 27840840#3 340955664"/>
    </vehicle>
    <vehicle id="bic75" type="bicycle" depart="357.00">
        <route edges="4902374#1 4902374#2 4902416#2 161392064#3 161392064#5 319453543#0 319453543#1 319453543#2 327761947 327761948#0 4523224#1 4523224#2 161389765 161392059#1 161392059#2 249697090#0 249697090#1 249697090#2 249697090#3 4734475#3 4734475#4 4734475#5 4734475#6 4734475#7 323823408 249871000 161392066 245546867 229481708#0 229481708#1 229481708#2 229481708#3 4806304 473684642#0 -473684643"/>
    </vehicle>
    <vehicle id="bic77" type="bicycle" depart="366.52">
        <route edges="27570527#3 -340955662 -27803780#2 -27803780#1 179109642#1 28788370#0 28788371#0 28788368#0 -27490680 319453543#2 327761947 327761948#0 4523224#1 4523224#2 161389765 161392059#1 161392059#2 249697090#0 249697090#1 249697090#2 249697090#3 4734475#3 4734475#4 4734475#5 4734475#6 4734475#7 323823408 249871000 161392066 245546867 229481708#0 229481708#1"/>
    </vehicle>
    <vehicle id="bic78" type="bicycle" depart="371.28">
        <route edges="27467655#2 27467655#3 -221893217#5 -221893217#4 -221893217#2 -221893217#1 -221893217#0 4734472 161389764 161392059#2 249697090#0 249697090#1 249697090#2 249697090#3 4734475#3 4734475#4 4734475#5 4734475#6 4734475#7 323823408 249871000 161392066 245546865 380438949#0 380438949#1 319447428 4559074#0 4559074#1 4559074#3 4559074#5 4559074#6 4559007 4902378#0 4902378#1 549917967 319453543#0 319453543#1 319453543#2"/>
    </vehicle>
    <vehicle id="bic79" type="bicycle" depart="376.04">
        <route edges="249697090#0 249697090#1 249697090#2 249697090#3 4734475#3 4734475#4 4734475#5 4734475#6 4734475#7 323823408 249871000 161392066 245546865 380438949#0 380438949#1 319447428 327956372 327956373#0 327956373#1 327956374 27570528#0 -28788365#2 -28885040#0"/>
    </vehicle>
    <vehicle id="bic80" type="bicycle" depart="380.80">
        <route edges="-221893267 -27840841#2 28788382#4 -341224415#1 -341224415#0 341224416 -27803780#1 179109642#1 28788370#0 -28788370#0"/>
    </vehicle>
    <vehicle id="bic81" type="bicycle" depart="385.56">
        <route edges="-473691609 473691609 -27570528#4 -27570528#3 27570527#3 -340955662 -27803780#2 -27803780#1 179109642#1 28788370#0 28788371#0 28788368#0 -27490680 319453543#2 327761947 327761948#0 4523224#1 4523224#2 161389765 161392059#1 161392059#2 249697090#0 249697090#1 249697090#2 249697090#3 4734475#3 4734475#4 4734475#5 4734475#6 4734475#7 323823408 249871000 161392066 245546867 229481708#0 -39368522#5 -39368522#4 -39368523 39368523"/>
    </vehicle>
    <vehicle id="bic82" type="bicycle" depart="390.32">
        <route edges="511815819 -221893217#2 -221893217#1 -221893217#0 4734472 161389764 161392059#2 249697090#0 249697090#1 249697090#2 249697090#3 4734475#3 4734475#4 4734475#5 4734475#6 4734475#7 323823408 249871000 161392066 245546865 380438949#0 380438949#1 319447428 327956372 327956373#0 327956373#1 327956374 27570528#0 27570528#1 27570528#2 27570528#3 27570528#4 -327764055 327764055"/>
    </vehicle>
    <vehicle id="bic83" type="bicycle" depart="395.08">
        <route edges="28788366 27803780#2 340955662 -27570527#3 -27570528#2 -27570528#1 -28788365#2"/>
    </vehicle>
    <vehicle id="bic84" type="bicycle" depart="399.84">
        <route edges="-162043157#0 -162043156 -39368522#4 -518474575 -473691590#0 39368524#2 380438949#1 319447428 327956372 327956373#0 327956373#1 327956374 27570528#0 27570528#1 27570528#2 -27570527#2 28885040#3 28788361#2"/>
    </vehicle>
    <vehicle id="bic85" type="bicycle" depart="404.60">
        <route edges="161392059#2 249697090#0 249697090#1 249697090#2 249697090#3 4734475#3 4734475#4 4734475#5 4734475#6 4734475#7 323823408 249871000 161392066 245546865 380438949#0 380438949#1 319447428 327956372 327956373#0 327956373#1 327956374 549928635 4902394#0 4902394#1 4902394#2 27570527#1"/>
    </vehicle>
    <vehicle id="bic86" type="bicycle" depart="409.36">
        <route edges="-511815820 511815820 -221893217#1 -221893217#0 4734472 161389764 161392059#2 249697090#0 249697090#1 249697090#2 249697090#3 4734475#3 4734475#4 4734475#5 4734475#6 4734475#7 323823408 249871000 161392066 245546865 380438949#0 380438949#1 319447428 327956372 327956373#0 327956373#1 327956374 161392064#3 27840836 28788366 -341224416 341224415#0 341224415#1 28788382#5 -487551846#0"/>
    </vehicle>
    <vehicle id="bic87" type="bicycle" depart="414.12">
        <route edges="-221893235 -221893217#2 -221893217#1 -221893217#0"/>
    </vehicle>
    <vehicle id="bic88" type="bicycle" depart="418.88">
        <route edges="221893257 511815820 -221893217#1 -221893217#0 4734472 161389764 161392059#2 249697090#0 249697090#1 249697090#2 249697090#3 4734475#3 4734475#4 4734475#5 4734475#6 4734475#7 323823408 249871000 161392066 245546865 380438949#0 380438949#1 319447428 4559074#0 4559074#1 4559074#3 4559074#5 4559074#6 4559007 4902378#0 4902378#1 549917967 319453543#0 319453543#1 27490680 27840838#0 27840838#1 -473691594"/>
    </vehicle>
    <vehicle id="bic89" type="bicycle" depart="423.64">
        <route edges="-27570527#1 27570527#1 27570527#2 27570527#3 -340955662 -27803780#2 -27803780#1 179109642#1 28788370#0 28788371#0 28788368#0 -27490680 319453543#2 327761947 327761948#0 -27467656 -28885074#0 -27467655#3 -27467655#2 -27467655#1"/>
    </vehicle>
    <vehicle id="bic90" type="bicycle" depart="428.40">
        <route edges="-473691604#2 -473691604#1 28885070#0 28885070#1 -340955662 -27803780#2 -27803780#1 179109642#1 28788370#0 28788371#0 28788368#0 -27490680 319453543#2 327761947 327761948#0 -27467656 221893285#0 221893285#1 511815820 -221893217#1"/>
    </vehicle>
    <vehicle id="bic91" type="bicycle" depart="433.16">
        <route edges="-179109642#2 -179109642#1 27803780#1 -341224416 341224415#0 341224415#1 -28788382#4 27840841#2 221893267"/>
    </vehicle>
    <vehicle id="bic92" type="bicycle" depart="437.92">
        <route edges="39368522#0 39368522#1 39368522#2 -518474575 -473691590#0 39368524#2 380438949#1 319447428 161392081#0 161392081#1 327761947 327761948#0 4523224#1 4523224#2 161389765 161392059#1 161392059#2 249697090#0 249697090#1 249697090#2 249697090#3 4734475#3 4734475#4"/>
    </vehicle>
    <vehicle id="bic93" type="bicycle" depart="442.68">
        <route edges="319447428 161392081#0 161392081#1 327761947 327761948#0 4523224#1 4523224#2 161389765 161392059#1 161392059#2 249697090#0 249697090#1 249697090#2 249697090#3 4734475#3 4734475#4 4734475#5 4734475#6 4734475#7 323823408 249871000 161392066 245546867 229481708#0 -39368522#5 162043156 518474788"/>
    </vehicle>
    <vehicle id="bic94" type="bicycle" depart="447.44">
        <route edges="28788382#0 -28885040#5 -28885040#4 -28885040#3 27570527#2 27570527#3 -340955662 -27803780#2 -27803780#1 179109642#1 28788370#0 28788371#0 28788368#0 -27490680 319453543#2 327761947 327761948#0 4523224#1 4523224#2 161389765 161392059#1 161392059#2 249697090#0 249697090#1 249697090#2 249697090#3 4734475#3 4734475#4 4734475#5 4734475#6 4734475#7 323823408 249871000 161392066 245546867 229481708#0 -39368522#5 -39368522#4 -39368523 162043157#1"/>
    </vehicle>
    <vehicle id="bic95" type="bicycle" depart="452.20">
        <route edges="344144147#1 4806304 327754983 247833369#0 247833369#1 245546865 380438949#0 380438949#1 319447428 4559074#0 4559074#1 4559074#3 4559074#5 4559074#6 4559007 4902378#0 4902378#1 549917967 319453543#0 319453543#1 27490680 27840838#0 27840838#1 27840838#2 -27840838#2"/>
    </vehicle>
    <vehicle id="bic96" type="bicycle" depart="456.96">
        <route edges="-27840836 27840836 28788366 27803780#2 340955662 -27570527#3 -27570527#2 28885040#3 28885040#4 28885040#5 -28788382#0"/>
    </vehicle>
    <vehicle id="bic97" type="bicycle" depart="461.72">
        <route edges="27840838#1 27840838#2 27803780#0 27803780#1 27803780#2 340955662 -27570527#3 -27570527#2 28885040#3 -28788361#1 4902394#4 4902394#5 4902394#6"/>
    </vehicle>
    <vehicle id="bic98" type="bicycle" depart="466.48">
        <route edges="-4902394#6 -4902394#5 -4902394#4 -4902394#3 -4902394#2 -4902394#1 -4902394#0 549928642#0"/>
    </vehicle>
    <vehicle id="bic100" type="bicycle" depart="476.00">
        <route edges="4902378#0 4902378#1 549917967 319453543#0 319453543#1 319453543#2 327761947 327761948#0 -27467656 340955667 221893215#0 221893215#1 -221893215#1"/>
    </vehicle>
    <vehicle id="bic101" type="bicycle" depart="480.76">
        <route edges="549928646#0 -549928646#0 4902394#0 4902394#1 549928648#1"/>
    </vehicle>
    <vehicle id="bic102" type="bicycle" depart="485.52">
        <route edges="-473691601#1 28788382#3 28788382#4 -341224415#1 -341224415#0 341224416 -27803780#1 -27803780#0 -27840838#2 -27840838#1 -27840838#0"/>
    </vehicle>
    <vehicle id="bic103" type="bicycle" depart="490.28">
        <route edges="319447428 327956372 327956373#0 327956373#1 327956374 549928635 4902394#0 4902394#1 -549928648#0 327764059#0"/>
    </vehicle>
    <vehicle id="bic104" type="bicycle" depart="495.04">
        <route edges="-221893217#1 221893217#1 -511815820 -221893257"/>
    </vehicle>
    <vehicle id="bic106" type="bicycle" depart="504.56">