<?xml version="1.0" encoding="UTF-8"?>

<!-- generated on Mon Jan  1 11:39:42 2018 by SUMO duarouter Version 0.30.0
<?xml version="1.0" encoding="UTF-8"?>

<configuration xmlns:xsi="http://www.w3.org/2001/XMLSchema-instance" xsi:noNamespaceSchemaLocation="http://sumo.dlr.de/xsd/duarouterConfiguration.xsd">

    <input>
        <net-file value="/media/jefferson/Dados/workspace/GoodsTracker/vanet/sp/place/osm.net.xml"/>
        <trip-files value="/media/jefferson/Dados/workspace/GoodsTracker/vanet/sp/place/osm.truck.trips.xml"/>
    </input>

    <output>
        <output-file value="/media/jefferson/Dados/workspace/GoodsTracker/vanet/sp/place/osm.truck.rou.xml"/>
    </output>

    <processing>
        <ignore-errors value="true"/>
    </processing>

    <time>
        <begin value="0"/>
        <end value="3600.0"/>
    </time>

    <report>
        <no-warnings value="true"/>
        <no-step-log value="true"/>
    </report>

</configuration>
-->

<routes xmlns:xsi="http://www.w3.org/2001/XMLSchema-instance" xsi:noNamespaceSchemaLocation="http://sumo.dlr.de/xsd/routes_file.xsd">
    <vType id="truck" vClass="truck"/>
    <vehicle id="tru0" type="truck" depart="0.00">
        <route edges="-27490679#1 27490679#1 327764053 473691609 473691604#0 28885070#0 28885070#1 -340955662 -27803780#2 -27803780#1 -27803780#0 -27840838#2 -27840838#1 -28788370#1"/>
    </vehicle>
    <vehicle id="tru1" type="truck" depart="0.64">
        <route edges="28788382#1 473691609 -27570528#4 -27570528#3"/>
    </vehicle>
    <vehicle id="tru2" type="truck" depart="1.28">
        <route edges="380438949#1 319447428 4559074#0 4559074#1 4559074#3 4559074#5 4559074#6 4559007 4902378#0 4902378#1 549917967 319453543#0 319453543#1 319453543#2 327761947 327761948#0 4523224#1 4523224#2 161389765 161392059#1 161392059#2 386278897"/>
    </vehicle>
    <vehicle id="tru3" type="truck" depart="1.92">
        <route edges="39368522#0 39368522#1 39368522#2 -518474575 -473691590#0 39368524#2 380438949#1 319447428 327956372 327956373#0 327956373#1 327956374 549928635 4902394#0 4902394#1 4902394#2 4902394#3 4902394#4 4902394#5 386278913#0 386278913#1 386278913#2"/>
    </vehicle>
    <vehicle id="tru4" type="truck" depart="2.56">
        <route edges="28885074#0 27467656 4523224#1 4523224#2 161389765 161392059#1 161392059#2 249697090#0 249697090#1 249697090#2 249697090#3 4734475#3 4734475#4 4734475#5 4734475#6 4734475#7 323823408 249871000 161392066 245546865 380438949#0 380438949#1 319447428 327956372 327956373#0 327956373#1 327956374 161392064#3 27840836 28788366 -341224416 341224415#0 341224415#1 -28788382#4 27840841#2 27840841#3"/>
    </vehicle>
    <vehicle id="tru5" type="truck" depart="3.20">
        <route edges="-28885040#1 28885040#1 549928648#2 549928648#3 -28885070#1"/>
    </vehicle>
    <vehicle id="tru6" type="truck" depart="3.84">
        <route edges="229481708#0 229481708#1 229481708#2 229481708#3 4806304 327754983 4734476#0 4734476#1 319453545#0"/>
    </vehicle>
    <vehicle id="tru7" type="truck" depart="4.48">
        <route edges="-386278913#2 27490679#1 327764053 473691609 473691604#0 28885070#0 28885070#1 -340955662 -27803780#2 -27803780#1 179109642#1 28788370#0 28788371#0 28788368#0 -27490680 319453543#2 327761947 327761948#0 4523224#1 4523224#2 161389765 161392059#1 161392059#2 249697090#0 249697090#1 249697090#2 249697090#3 4734475#3 4734475#4 4734475#5 4734475#6 4734475#7 323823408 249871000 161392066 245546867 229481708#0 229481708#1 229481708#2 229481708#3 4806304"/>
    </vehicle>
    <vehicle id="tru8" type="truck" depart="5.12">
        <route edges="4806304 473684642#0 473684642#1 247833370#1 4328546#1"/>
    </vehicle>
    <vehicle id="tru9" type="truck" depart="5.76">
        <route edges="-8154723 -4902436#0 -549928646#0 161392064#0"/>
    </vehicle>
    <vehicle id="tru10" type="truck" depart="6.40">
        <route edges="27570527#1 27570527#2 27570527#3 -340955662 -340955664 27840840#4"/>
    </vehicle>
    <vehicle id="tru11" type="truck" depart="7.04">
        <route edges="473684643 -473684642#0 327754983 247833369#0 247833369#1 245546867 229481708#0 -39368522#5 -39368522#4 -39368522#2 -39368522#1 -39368522#0"/>
    </vehicle>
    <vehicle id="tru12" type="truck" depart="7.68">
        <route edges="-487551846#2 -221893267 -27840841#2 -28788382#3 -28788382#2 473691607 -28788374"/>
    </vehicle>
    <vehicle id="tru13" type="truck" depart="8.32">
        <route edges="511815820 -221893217#1 -221893217#0 4734472 161389764 161392059#2 249697090#0 249697090#1 249697090#2 249697090#3 4734475#3 4734475#4 4734475#5 4734475#6 4734475#7 323823408 249871000 161392070 247833370#0 -473684642#1 -473684643"/>
    </vehicle>
    <vehicle id="tru14" type="truck" depart="8.96">
        <route edges="340955661 4902378#0 4902378#1 549917967 319453543#0 549345534 4559074#0 4559074#1 4559074#3 4559074#5 4559074#6 4559007"/>
    </vehicle>
    <vehicle id="tru15" type="truck" depart="9.60">
        <route edges="162043156 -162043156 -39368522#4 -518474575 -473691590#0 39368524#2 380438949#1 319447428 327956372 327956373#0 327956373#1 327956374 27570528#0 27570528#1 549928648#3 -28885070#1 -28885070#0 473691604#1 473691604#2"/>
    </vehicle>
    <vehicle id="tru16" type="truck" depart="10.24">
        <route edges="4902416#2 161392064#3 161392064#5 319453543#0 319453543#1 319453543#2 327761947 327761948#0 -27467656 -28885074#0 -27467655#3 -27467655#2 -27467655#1 -27467655#0"/>
    </vehicle>
    <vehicle id="tru17" type="truck" depart="10.88">
        <route edges="28885040#2 27570527#2 27570527#3 -340955662 -27803780#2 -27803780#1 179109642#1 28788370#0 28788371#0 28788368#0 -27490680 319453543#2 327761947 327761948#0 -27467656 340955667 221893215#0 221893215#1 221893215#2 511815818"/>
    </vehicle>
    <vehicle id="tru18" type="truck" depart="11.52">
        <route edges="27490680 -27490680 319453543#2 327761947 327761948#0 4523224#1 4523224#2 161389765 161392059#1 161392059#2 249697090#0 249697090#1 249697090#2 -386278899 221893219#2"/>
    </vehicle>
    <vehicle id="tru20" type="truck" depart="12.80">
        <route edges="-27570528#0 549928635 549928646#0 -4902433"/>
    </vehicle>
    <vehicle id="tru21" type="truck" depart="13.44">
        <route edges="28885073 -340955667 27467656 4523224#1 4523224#2 161389765 161392059#1 161392059#2 249697090#0 249697090#1 249697090#2 249697090#3 4734475#3 4734475#4 4734475#5 4734475#6 4734475#7 323823408 249871000 161392066 245546865 380438949#0 380438949#1 319447428 327956372 327956373#0 327956373#1 4902374#0 4902374#1"/>
    </vehicle>
    <vehicle id="tru22" type="truck" depart="14.08">
        <route edges="-221893219#1 221893219#1 386278899 249697090#3 4734475#3 4734475#4 4734475#5 4734475#6 4734475#7 323823408 249871000 161392066 245546865 380438949#0 380438949#1 319447428 327956372 327956373#0 327956373#1 327956374 549928635 549928642#0 549928642#1"/>
    </vehicle>
    <vehicle id="tru23" type="truck" depart="14.72">
        <route edges="4559074#6 4559007 4902378#0 4902474 327956373#1 327956374 549928635 4902394#0 4902394#1 4902394#2 4902394#3 4902394#4 4902394#5 386278913#0 386278913#1 386278913#2"/>
    </vehicle>
    <vehicle id="tru24" type="truck" depart="15.36">
        <route edges="27490679#0 27490679#1 327764053 473691609 473691604#0 28885070#0 28885070#1 -340955662 -27803780#2 -27803780#1 179109642#1 28788370#0 28788371#0 28788368#0 -27490680 319453543#2 327761947 327761948#0 -27467656 -28885074#0 -27467655#3 -27467655#2 -27467655#1 -27467655#0"/>
    </vehicle>
    <vehicle id="tru25" type="truck" depart="16.00">
        <route edges="-473691601#1 -473691601#0 -473691604#1 -473691604#0 -327764055 -327764057#2 -327764057#1 327764057#1"/>
    </vehicle>
    <vehicle id="tru26" type="truck" depart="16.64">
        <route edges="-473691609 473691609 -327764055 -327764057#2 -28885040#4 -28885040#3 -27570527#1"/>
    </vehicle>
    <vehicle id="tru27" type="truck" depart="17.28">
        <route edges="-473691589 39368522#2 -518474575 -473691590#0 39368524#2 380438949#1 319447428 327956372 327956373#0 327956373#1 327956374 27570528#0 27570528#1 -549928648#2"/>
    </vehicle>
    <vehicle id="tru28" type="truck" depart="17.92">
        <route edges="327956373#1 327956374 549928635 549928646#0"/>
    </vehicle>
    <vehicle id="tru29" type="truck" depart="18.56">
        <route edges="-327764057#1 -4902394#4 -4902394#3 27570527#1 27570527#2 27570527#3 -340955662 -27803780#2 -27803780#1 179109642#1 28788370#0 28788371#0 28788368#0 -27490680 319453543#2 327761947 327761948#0 4523224#1 4523224#2 161389765 161392059#1 161392059#2 249697090#0 249697090#1 249697090#2 249697090#3 4734475#3 4734475#4 4734475#5 4734475#6 4734475#7 323823408 249871000 161392070 247833370#0"/>
    </vehicle>
    <vehicle id="tru30" type="truck" depart="19.20">
        <route edges="-340955662 -27803780#2 -27803780#1 179109642#1 28788370#0 28788371#0 28788368#0 -27490680 319453543#2 327761947 327761948#0 4523224#1 4523224#2 161389765 161392059#1 161392059#2 249697090#0 249697090#1 249697090#2 249697090#3 4734475#3 4734475#4 4734475#5 4734475#6 4734475#7 323823408 249871000 161392066 245546867 229481708#0 -39368522#5 -39368522#4 -39368522#2 39368522#2"/>
    </vehicle>
    <vehicle id="tru31" type="truck" depart="19.84">
        <route edges="-28885040#2 549928648#2 -549928648#2"/>
    </vehicle>
    <vehicle id="tru32" type="truck" depart="20.48">
        <route edges="-221893285#1 221893285#1 511815820 -221893217#1 -221893217#0 4734472 161389764 161392059#2 249697090#0 249697090#1 249697090#2 249697090#3 4734475#3 4734475#4 4734475#5 4734475#6 4734475#7 323823408 249871000 161392066 245546865 380438949#0 380438949#1 319447428 327956372 327956373#0 327956373#1 327956374 549928635 4902394#0 4902394#1 4902394#2 27570527#1"/>
    </vehicle>
    <vehicle id="tru33" type="truck" depart="21.12">
        <route edges="-473691594 473691594 -27840838#1 -27840838#0 -27490680 319453543#2 327761947 327761948#0 4523224#1 4523224#2 319453544 161392067 161392069#1 96097794 15968349"/>
    </vehicle>
    <vehicle id="tru34" type="truck" depart="21.76">
        <route edges="418990606 4902378#0 4902378#1 549917967 319453543#0 319453543#1 319453543#2 327761947 327761948#0 4523224#1 4523224#2 161389765 161392059#1 161392059#2 249697090#0 249697090#1 249697090#2 249697090#3 4734475#3 4734475#4 4734475#5 4734475#6 4734475#7 323823408 249871000 161392066 245546867 229481708#0 -39368522#5 -39368522#4 -39368522#2 473691589"/>
    </vehicle>
    <vehicle id="tru35" type="truck" depart="22.40">
        <route edges="-27840840#4 -27840840#3 -27840840#2"/>
    </vehicle>
    <vehicle id="tru36" type="truck" depart="23.04">
        <route edges="28885073 -340955667 27467656 4523224#1 4523224#2 161389765 161392059#1 161392059#2 249697090#0 249697090#1 249697090#2 249697090#3 4734475#3 4734475#4 4734475#5 4734475#6 4734475#7 323823408 249871000 161392066 245546867 229481708#0 -39368522#5 39368522#5"/>
    </vehicle>
    <vehicle id="tru37" type="truck" depart="23.68">
        <route edges="221893219#0 221893219#1 386278899 249697090#3 4734475#3 4734475#4 4734475#5 4734475#6 4734475#7 323823408 249871000 161392066 245546867 229481708#0 229481708#1 229481708#2 229481708#3 229481708#5"/>
    </vehicle>
    <vehicle id="tru38" type="truck" depart="24.32">
        <route edges="229481708#3 4806304 327754983 4734476#0 4734476#1 319453545#0 161389756#1 8369310 -4734472 221893217#0 221893217#1 221893217#2 221893217#4"/>
    </vehicle>
    <vehicle id="tru39" type="truck" depart="24.96">
        <route edges="28788382#2 -28788382#2 473691607 -27490679#1 386278913#2"/>
    </vehicle>
    <vehicle id="tru40" type="truck" depart="25.60">
        <route edges="473691607 -27490679#1 -386278913#1 28788382#0"/>
    </vehicle>
    <vehicle id="tru41" type="truck" depart="26.24">
        <route edges="221893232 27467655#2 27467655#3 -221893217#5 -221893217#4 -221893217#2 -221893217#1 -548651990#1 -548651990#0"/>
    </vehicle>
    <vehicle id="tru42" type="truck" depart="26.88">
        <route edges="27840840#2 -27840840#2 -27840840#1 -27840840#0 -27490680 319453543#2 327761947 327761948#0 4523224#1 4523224#2 161389765 161392059#1 161392059#2 249697090#0 249697090#1 249697090#2 249697090#3 4734475#3 4734475#4 4734475#5 4734475#6 4734475#7 323823408 249871000 161392066 245546867 229481708#0 -39368522#5 162043156 -162043156"/>
    </vehicle>
    <vehicle id="tru43" type="truck" depart="27.52">
        <route edges="-549928648#2 549928648#2 549928648#3 -340955662 27840841#0 27840841#1 27840841#2 27840841#3"/>
    </vehicle>
    <vehicle id="tru44" type="truck" depart="28.16">
        <route edges="-4902394#6 -4902394#5 -4902394#4 -4902394#3 27570527#1 27570527#2 27570527#3 -340955662 -27803780#2 -27803780#1 179109642#1 28788370#0 28788371#0 28788368#0 -27490680 319453543#2 327761947 327761948#0 4523224#1 4523224#2 161389765 161392059#1 161392059#2 249697090#0 249697090#1 249697090#2 249697090#3 4734475#3 4734475#4 4734475#5 4734475#6 4734475#7 323823408 249871000 161392066 245546867 229481708#0 -39368522#5 -39368522#4 39368522#4"/>
    </vehicle>
    <vehicle id="tru46" type="truck" depart="29.44">
        <route edges="-386278897 249697090#0 249697090#1 249697090#2 249697090#3 4734475#3 4734475#4 4734475#5 4734475#6 4734475#7 323823408 249871000 161392066 245546867 229481708#0 -39368522#5 -39368522#4 -39368522#2 39368522#2"/>
    </vehicle>
    <vehicle id="tru47" type="truck" depart="30.08">
        <route edges="-27570528#4 -28788361#2 -28788361#1 -4902394#3 -4902394#2 -4902394#1 -4902394#0 549928646#0 4902436#0 4902451#1"/>
    </vehicle>
    <vehicle id="tru48" type="truck" depart="30.72">
        <route edges="344144147#0 344144147#1 4806304 327754983 247833369#0 247833369#1 245546865 380438949#0 380438949#1 319447428 327956372 327956373#0 327956373#1 327956374 161392064#3 27840836 28788366 -341224416 341224415#0 341224415#1 -28788382#4 28788382#4"/>
    </vehicle>
    <vehicle id="tru50" type="truck" depart="32.00">
        <route edges="221893219#0 221893219#1 386278899 249697090#3 4734475#3 4734475#4 4734475#5 4734475#6 4734475#7 323823408 249871000 161392066 245546865 380438949#0 380438949#1 319447428 327956372 327956373#0 327956373#1 327956374 549928635 4902394#0 4902394#1 4902394#2 4902394#3 4902394#4 4902394#5 386278913#0 386278913#1 27490679#1"/>
    </vehicle>
    <vehicle id="tru51" type="truck" depart="32.64">
        <route edges="380438949#0 380438949#1 319447428 327956372 327956373#0 327956373#1 327956374 27570528#0 27570528#1 549928648#3 -28885070#1 -28885070#0 473691604#1 473691604#2"/>
    </vehicle>
    <vehicle id="tru52" type="truck" depart="33.28">
        <route edges="28788365#2 -28788365#2 -28788365#1 4902394#1 4902394#2 4902394#3 4902394#4 4902394#5 386278913#0 386278913#1 386278913#2"/>
    </vehicle>
    <vehicle id="tru53" type="truck" depart="33.92">
        <route edges="-28885055#1 179109642#0 179109642#1 28788370#0 28788371#0 28788368#0 -27490680 319453543#2 327761947 327761948#0 4523224#1 4523224#2 161389765 161392059#1 161392059#2 249697090#0 249697090#1 249697090#2 249697090#3 249697090#4 -249697087"/>
    </vehicle>
    <vehicle id="tru55" type="truck" depart="35.20">
        <route edges="327956373#1 327956374 549928635 4902394#0 4902394#1 4902394#2 4902394#3 4902394#4 4902394#5 386278913#0 386278913#1 386278913#2"/>
    </vehicle>
    <vehicle id="tru56" type="truck" depart="35.84">
        <route edges="548651990#0 548651990#1 -221893217#0 4734472 161389764 161392059#2 249697090#0 249697090#1 249697090#2 249697090#3 4734475#3 4734475#4 4734475#5 4734475#6 4734475#7 323823408 249871000 161392066 245546865 380438949#0 380438949#1 319447428 4559074#0 4559074#1 4559074#3 4559074#5 4559074#6 4559007 4902378#0 4902378#1 549917967 319453543#0 319453543#1 27490680 -28788368#0 -28788371#0"/>
    </vehicle>
    <vehicle id="tru57" type="truck" depart="36.48">
        <route edges="-518474788 -162043156 -39368522#4 -518474575 -473691590#0 39368524#2 380438949#1 319447428 327956372 327956373#0 327956373#1 327956374 27570528#0 27570528#1 549928648#3 -28885070#1 28885070#1"/>
    </vehicle>
    <vehicle id="tru58" type="truck" depart="37.12">
        <route edges="548651990#1 -221893217#0 4734472 161389764 161392059#2 249697090#0 249697090#1 249697090#2 249697090#3 4734475#3 4734475#4 4734475#5 4734475#6 4734475#7 323823408 249871000 161392066 245546865 380438949#0 380438949#1 319447428 327956372 327956373#0 327956373#1 327956374 549928635 4902394#0 4902394#1 4902394#2 4902394#3 4902394#4 327764057#1 28885040#5"/>
    </vehicle>
    <vehicle id="tru59" type="truck" depart="37.76">
        <route edges="-27840841#1 -27840841#0 340955662 28885070#2 -27570528#1 -28788365#2"/>
    </vehicle>
    <vehicle id="tru60" type="truck" depart="38.40">
        <route edges="221893257 511815820 -221893217#1 -221893217#0 4734472 161389764 161392059#2 249697090#0 249697090#1 249697090#2 249697090#3 4734475#3 4734475#4 4734475#5 4734475#6 4734475#7 323823408 249871000 161392066 245546865 380438949#0 380438949#1 319447428 327956372 327956373#0 327956373#1 327956374 27570528#0 27570528#1 27570528#2 27570528#3 27570528#4 -473691609 473691607 327764053"/>
    </vehicle>
    <vehicle id="tru61" type="truck" depart="39.04">
        <route edges="-27840841#3 -27840841#2 28788382#4 -341224415#1 -341224415#0 341224416 -27803780#1 179109642#1 28788370#0 28788371#0 28788368#0 -27490680 319453543#2 327761947 327761948#0 4523224#1 4523224#2 161389765 161392059#1 161392059#2 161389758 161389756#1"/>
    </vehicle>
    <vehicle id="tru62" type="truck" depart="39.68">
        <route edges="-386278897 161389758 161389756#1 8369310 -4734472 221893217#0 221893217#1 221893217#2 221893217#4 221893217#5 28885073 221893215#0 221893215#1 221893215#2 511815818"/>
    </vehicle>
    <vehicle id="tru63" type="truck" depart="40.32">
        <route edges="-221893219#2 386278899 249697090#3 4734475#3 4734475#4 4734475#5 4734475#6 4734475#7 323823408 249871000 161392066 245546867 229481708#0 -39368522#5 -39368522#4 -39368522#2 473691589"/>
    </vehicle>
    <vehicle id="tru65" type="truck" depart="41.60">
        <route edges="549928646#0 4902416#2 161392064#3 161392064#5 319453543#0 319453543#1 319453543#2 327761947 327761948#0 -27467656 340955667 221893215#0 221893215#1 -221893215#1"/>
    </vehicle>
    <vehicle id="tru66" type="truck" depart="42.24">
        <route edges="221893235 -221893235 -221893217#2 -221893217#1 -221893217#0 4734472 161389764 161392059#2 249697090#0 249697090#1 249697090#2 249697090#3 4734475#3 4734475#4 4734475#5 4734475#6 4734475#7 323823408 249871000 161392066 245546865 380438949#0 380438949#1 319447428 327956372 327956373#0 327956373#1 327956374 27570528#0 27570528#1 27570528#2 27570527#3"/>
    </vehicle>
    <vehicle id="tru67" type="truck" depart="42.88">
        <route edges="39368523 -518474575 -473691590#0 39368524#2 380438949#1 319447428 327956372 327956373#0 327956373#1 327956374 27570528#0 27570528#1 27570528#2 -27570527#2 28885040#3 28885040#4"/>
    </vehicle>
    <vehicle id="tru68" type="truck" depart="43.52">
        <route edges="27490679#0 -386278913#1 -386278913#0 -4902394#5 -4902394#4 -4902394#3 -4902394#2 -4902394#1 28788365#1"/>
    </vehicle>
    <vehicle id="tru69" type="truck" depart="44.16">
        <route edges="28788384#0 -28788384#0 -27840841#0 340955662 -27570527#3 -27570527#2 -27570527#1 -4902394#2 4902394#2"/>
    </vehicle>
    <vehicle id="tru70" type="truck" depart="44.80">
        <route edges="-28788371#0 28788371#0 28788368#0 -27490680 319453543#2 327761947 327761948#0 4523224#1 4523224#2 319453544 161392067 161392069#1 96097794"/>
    </vehicle>
    <vehicle id="tru71" type="truck" depart="45.44">
        <route edges="221893240 27467655#1 27467655#2 27467655#3 -221893217#5 -221893217#4 -221893217#2 -221893217#1 -221893217#0 4734472 161389764 161392059#2 249697090#0 249697090#1 249697090#2 249697090#3 4734475#3 4734475#4 4734475#5 4734475#6 4734475#7 323823408 249871000 161392066 245546865 380438949#0 380438949#1 319447428 327956372 327956373#0 327956373#1 327956374 549928635 549928642#0 549928642#1"/>
    </vehicle>
    <vehicle id="tru73" type="truck" depart="46.72">
        <route edges="249697087 4734475#0 4734475#3 4734475#4 4734475#5 4734475#6 4734475#7 323823408 249871000 161392066 245546865 380438949#0 -39368524#2 473691590#0 473691590#1"/>
    </vehicle>
    <vehicle id="tru74" type="truck" depart="47.36">
        <route edges="473684643 -473684642#0 327754983 4734476#0 4734476#1 319453545#0 161389756#1 8369310 -4734472 221893217#0 221893217#1 221893217#2 221893235 -221893235"/>
    </vehicle>
    <vehicle id="tru75" type="truck" depart="48.00">
        <route edges="549928648#0 4902394#2 27570527#1 27570527#2 27570527#3 -340955662 -27803780#2"/>
    </vehicle>
    <vehicle id="tru76" type="truck" depart="48.64">
        <route edges="4902433 4902416#2 161392064#3 161392064#5 319453543#0 319453543#1 319453543#2 327761947 327761948#0 -27467656 221893285#0 221893285#1 -221893257"/>
    </vehicle>
    <vehicle id="tru77" type="truck" depart="49.28">
        <route edges="-27840836 161392064#5 319453543#0 319453543#1 319453543#2 327761947 327761948#0 4523224#1 4523224#2 161389765 161392059#1 161392059#2 249697090#0 249697090#1 249697090#2 249697090#3 4734475#3 4734475#4 4734475#5 4734475#6 4734475#7 323823408 249871000 161392066 245546867 229481708#0 -39368522#5 -39368522#4 -39368522#2 -39368522#1 39368522#1"/>
    </vehicle>
    <vehicle id="tru78" type="truck" depart="49.92">
        <route edges="28788361#0 -4902394#3 27570527#1 27570527#2 27570527#3 -340955662 -27803780#2 -27803780#1 -27803780#0"/>
    </vehicle>
    <vehicle id="tru79" type="truck" depart="50.56">
        <route edges="-27840840#4 -27840840#3 -27840840#2 -27840840#1 -27840840#0 -27490680 319453543#2 327761947 327761948#0 4523224#1 4523224#2 161389765 161392059#1 161392059#2 249697090#0 249697090#1 249697090#2 249697090#3 4734475#3 4734475#4 4734475#5 4734475#6 4734475#7 323823408 249871000 161392070 4734490"/>
    </vehicle>
    <vehicle id="tru80" type="truck" depart="51.20">
        <route edges="28885055#0 179109642#0 179109642#1 28788370#0 28788371#0 28788368#0 -27490680 319453543#2 327761947 327761948#0 4523224#1 4523224#2 161389765 161392059#1 161392059#2 249697090#0 249697090#1 249697090#2 249697090#3 4734475#3 4734475#4 4734475#5 4734475#6 4734475#7 323823408 249871000 161392070 247833370#0 -473684642#1 -473684642#0 327754983 4734476#0 4734476#1"/>
    </vehicle>
    <vehicle id="tru81" type="truck" depart="51.84">
        <route edges="27490679#0 27490679#1 327764053 28788382#2 -473691601#0"/>
    </vehicle>
    <vehicle id="tru82" type="truck" depart="52.48">
        <route edges="28788365#1 -28885040#0 161392064#1 161392064#3 161392064#5 319453543#0 319453543#1 319453543#2 327761947 327761948#0 4523224#1 4523224#2 161389765 161392059#1 161392059#2 249697090#0 249697090#1 249697090#2 249697090#3 4734475#3 4734475#4 4734475#5 4734475#6 4734475#7 323823408 249871000 161392066 245546867 229481708#0 229481708#1 229481708#2"/>
    </vehicle>
    <vehicle id="tru83" type="truck" depart="53.12">
        <route edges="-39368522#4 -518474575 -473691590#0 39368524#2 380438949#1 319447428 327956372 327956373#0 327956373#1 327956374 549928635 4902394#0 4902394#1 4902394#2 4902394#3 4902394#4 327764057#1 -327764057#1"/>
    </vehicle>
    <vehicle id="tru84" type="truck" depart="53.76">
        <route edges="27467656 4523224#1 4523224#2 161389765 161392059#1 161392059#2 386278897"/>
    </vehicle>
    <vehicle id="tru85" type="truck" depart="54.40">
        <route edges="-28885040#2 -549928648#1 -4902394#1 -4902394#0 549928646#0 4902436#0"/>
    </vehicle>
    <vehicle id="tru86" type="truck" depart="55.04">
        <route edges="4902433 4902416#2 161392064#3 161392064#5 319453543#0 549345534 4559074#0 4559074#1 4559074#3 4559074#5 4559074#6"/>
    </vehicle>
    <vehicle id="tru87" type="truck" depart="55.68">
        <route edges="28885040#2 27570527#2 27570527#3 -340955662 -27803780#2 -27803780#1 179109642#1 28788370#0 28788371#0 28788368#0 -27490680 319453543#2 327761947 327761948#0 4523224#1 4523224#2 161389765 161392059#1 161392059#2 249697090#0 249697090#1 249697090#2 249697090#3 4734475#3 4734475#4 4734475#5 4734475#6 4734475#7 323823408 249871000 161392070 247833370#0 247833370#1 4328546#1 4328546#2"/>
    </vehicle>
    <vehicle id="tru88" type="truck" depart="56.32">
        <route edges="28885040#1 549928648#2 549928648#3 -27570527#3"/>
    </vehicle>
    <vehicle id="tru89" type="truck" depart="56.96">
        <route edges="-28788361#2 -28885040#3 27570527#2 27570527#3 -340955662 -27803780#2 -27803780#1 179109642#1 28788370#0 28788371#0 28788368#0 -27490680 319453543#2 327761947 327761948#0 4523224#1 4523224#2 161389765 8369310 -4734472 341224412"/>
    </vehicle>
    <vehicle id="tru90" type="truck" depart="57.60">
        <route edges="28788382#2 28788382#3 28788382#4 -341224415#1 -341224415#0 341224416 -27803780#1 179109642#1 28788370#0 28788371#0 28788368#0 -27490680 319453543#2 327761947 327761948#0 4523224#1 4523224#2 161389765 161392059#1 161392059#2 249697090#0 249697090#1 249697090#2 -386278899 221893219#2"/>
    </vehicle>
    <vehicle id="tru92" type="truck" depart="58.88">
        <route edges="-221893217#1 -221893217#0 4734472 161389764 161392059#2 249697090#0 249697090#1 249697090#2 249697090#3 4734475#3 4734475#4 4734475#5 4734475#6 4734475#7 323823408 249871000 161392066 245546865 380438949#0 -39368524#2 -39368524#1"/>
    </vehicle>
    <vehicle id="tru93" type="truck" depart="59.52">
        <route edges="27840841#2 -27840841#2 -28788382#3 -473691601#0 -473691604#1 -473691604#0 -27570528#4 -28788361#2"/>
    </vehicle>
    <vehicle id="tru95" type="truck" depart="60.80">
        <route edges="-4902394#4 -4902394#3 -4902394#2 -4902394#1 -4902394#0 549928646#0 4902416#2"/>
    </vehicle>
    <vehicle id="tru96" type="truck" depart="61.44">
        <route edges="245546867 402922224 380438949#0 380438949#1 319447428 4559074#0 4559074#1 4559074#3 4559074#5 4559074#6 4559007 4902378#0 4902378#1 549917967 319453543#0 319453543#1 319453543#2 327761947 327761948#0 -27467656 340955667 221893215#0 221893215#1 221893215#2"/>
    </vehicle>
    <vehicle id="tru97" type="truck" depart="62.08">
        <route edges="473691604#0 473691604#1 473691601#0 28788382#3 28788382#4 -341224415#1"/>
    </vehicle>
    <vehicle id="tru98" type="truck" depart="62.72">
        <route edges="-28885040#5 327764057#2 327764055 473691604#0 28885070#0 28885070#1 -340955662 -27803780#2 -27803780#1 179109642#1 28788370#0 28788371#0 28788368#0 -27490680 319453543#2 327761947 327761948#0 4523224#1 4523224#2"/>
    </vehicle>
    <vehicle id="tru100" type="truck" depart="64.00">
        <route edges="-4902394#6 -4902394#5 -4902394#4 -4902394#3 27570527#1 27570527#2 27570527#3 -340955662 -27803780#2 27803780#2"/>
    </vehicle>
    <vehicle id="tru101" type="truck" depart="64.64">
        <route edges="179109642#0 179109642#1 28788370#0 28788371#0 28788368#0 -27490680 319453543#2 327761947 327761948#0 4523224#1 4523224#2 161389765 161392059#1 161392059#2 249697090#0 249697090#1 249697090#2 249697090#3 4734475#3 4734475#4 4734475#5 4734475#6 4734475#7 323823408 249871000 161392070 247833370#0 -473684642#1 -473684642#0 327754983"/>
    </vehicle>
    <vehicle id="tru102" type="truck" depart="65.28">
        <route edges="27840840#1 -179109642#2 -179109642#1 27803780#1 -341224416 341224415#0 341224415#1 28788382#5 -487551846#0"/>
    </vehicle>
    <vehicle id="tru103" type="truck" depart="65.92">
        <route edges="-27840840#4 340955664 340955662 -27570527#3 -27570527#2 -27570527#1 -4902394#2 -4902394#1 -4902394#0 549928646#0 4902416#2"/>
    </vehicle>
    <vehicle id="tru104" type="truck" depart="66.56">
        <route edges="221893219#0 -221893214#1 -221893235 -511815819 -221893285#1 -221893285#0 -28885074#0"/>
    </vehicle>
    <vehicle id="tru105" type="truck" depart="67.20">
        <route edges="39368522#0 39368522#1 39368522#2 39368522#4 39368522#5 229481708#1 229481708#2 229481708#3 4806304 473684642#0 473684642#1 247833370#1 4328546#1 4734487 96097834 15968349"/>
    </vehicle>
    <vehicle id="tru106" type="truck" depart="67.84">
        <route edges="4559074#1 4559074#3 4559074#5 4559074#6 4559007 4902378#0 4902378#1 549917967 319453543#0 319453543#1 319453543#2 327761947 327761948#0 4523224#1 4523224#2 161389765 161392059#1 161392059#2 161389758 319453545#1"/>
    </vehicle>
    <vehicle id="tru107" type="truck" depart="68.48">
        <route edges="27570527#0 27570527#1 27570527#2 27570527#3 -340955662 -27803780#2 -27803780#1 179109642#1 28788370#0 28788371#0 28788368#0 -27490680 319453543#2 327761947 327761948#0 4523224#1 4523224#2 161389765 161392059#1 161392059#2 249697090#0 249697090#1 249697090#2 249697090#3 4734475#3 4734475#4 4734475#5 4734475#6 4734475#7 323823408 249871000 161392070 247833370#0 -473684642#1 -473684642#0 327754983 4734476#0 4734476#1"/>
    </vehicle>
    <vehicle id="tru108" type="truck" depart="69.12">
        <route edges="-27840840#2 27840840#2 27840840#3 27840840#4"/>
    </vehicle>
    <vehicle id="tru109" type="truck" depart="69.76">
        <route edges="-28788365#2 -28885040#0 161392064#1 161392064#3 161392064#5 319453543#0 319453543#1 319453543#2 327761947 327761948#0 -27467656 221893285#0 221893285#1 511815820 -221893217#1 -548651990#1 -548651990#0"/>
    </vehicle>
    <vehicle id="tru110" type="truck" depart="70.40">
        <route edges="-27840841#0 -27803780#2 -27803780#1 179109642#1 28788370#0 28788371#0 28788368#0 -27490680 319453543#2 327761947 327761948#0 4523224#1 4523224#2 161389765 161392059#1 161392059#2 249697090#0 249697090#1"/>
    </vehicle>
    <vehicle id="tru111" type="truck" depart="71.04">