<?xml version="1.0" encoding="UTF-8"?>

<!-- generated on Mon Jan  1 11:39:36 2018 by SUMO polyconvert Version 0.30.0
<?xml version="1.0" encoding="UTF-8"?>

<configuration xmlns:xsi="http://www.w3.org/2001/XMLSchema-instance" xsi:noNamespaceSchemaLocation="http://sumo.dlr.de/xsd/polyconvertConfiguration.xsd">

    <input>
        <net-file value="/media/jefferson/Dados/workspace/GoodsTracker/vanet/sp/place/osm.net.xml"/>
        <osm-files value="/media/jefferson/Dados/workspace/GoodsTracker/vanet/sp/place/map.osm"/>
        <osm.keep-full-type value="true"/>
        <type-file value="/media/jefferson/Dados/workspace/sumo-0.30.0/data/typemap/osmPolyconvert.typ.xml"/>
    </input>

    <output>
        <output-file value="/media/jefferson/Dados/workspace/GoodsTracker/vanet/sp/place/osm.poly.xml"/>
    </output>

    <processing>
        <poi-layer-offset value="5"/>
    </processing>

    <report>
        <verbose value="true"/>
    </report>

</configuration>
-->

<additional xmlns:xsi="http://www.w3.org/2001/XMLSchema-instance" xsi:noNamespaceSchemaLocation="http://sumo.dlr.de/xsd/additional_file.xsd">
    <location netOffset="-320521.10,2617185.22" convBoundary="-96.95,-436.26,6818.61,14166.13" origBoundary="-46.759682,-23.659768,-46.692025,-23.527568" projParameter="+proj=utm +zone=23 +ellps=WGS84 +datum=WGS84 +units=m +no_defs"/>

    <poly id="161389759" type="amenity.love_hotel" color="237,199,199" fill="1" layer="-1.00" shape="2919.72,1217.53 2908.56,1183.53 2895.87,1159.24 2884.54,1148.00 2872.10,1138.36 2862.44,1145.81 2869.82,1171.74 2856.57,1176.96 2877.82,1242.68 2919.72,1217.53"/>
    <poly id="161389759#1" type="building.yes" color="255,230,230" fill="1" layer="-1.00" shape="2919.72,1217.53 2908.56,1183.53 2895.87,1159.24 2884.54,1148.00 2872.10,1138.36 2862.44,1145.81 2869.82,1171.74 2856.57,1176.96 2877.82,1242.68 2919.72,1217.53"/>
    <poly id="161699097" type="waterway.river" color="181,209,209" fill="0" layer="-4.00" shape="3391.91,1241.29 3397.82,1285.60 3438.53,1456.21 3496.19,1601.05 3569.51,1727.16 3870.40,2097.04 4645.54,3037.97 4704.74,3108.80 4816.87,3238.93 4902.66,3316.95 5013.59,3400.78 5133.24,3476.15 5263.29,3531.41 5505.72,3623.51 5606.33,3669.17 5684.96,3716.70 5785.42,3793.74 5843.32,3861.37 5894.79,3943.71 5921.35,4004.73"/>
    <poly id="162043148" type="landuse.commercial" color="209,209,204" fill="1" layer="-3.00" shape="2776.75,704.99 2824.94,772.96 2868.54,841.60 2919.26,915.98 2965.51,981.80 2985.17,976.36 3015.24,976.02 3044.68,972.82 3079.55,953.38 3082.76,952.19 3181.94,915.61 3221.24,908.28 3238.20,910.62 3248.42,916.86 3250.16,854.95 3256.29,813.33 3263.68,749.20 3264.17,708.06 3253.29,641.91 3246.77,610.28 3232.89,587.70 3206.23,564.28 3166.31,533.80 3141.74,512.23 3111.59,465.75 3100.59,456.17 2980.94,517.37 2910.36,571.84 2857.45,624.39 2814.49,664.31 2776.75,704.99"/>
    <poly id="162043152" type="building.commercial" color="255,230,230" fill="1" layer="-1.00" shape="3155.71,830.38 3161.01,825.96 3158.65,820.91 3196.58,800.42 3202.24,803.90 3208.54,799.76 3204.49,793.63 3198.74,792.92 3176.99,758.00 3178.38,754.66 3173.86,746.96 3168.79,749.89 3167.88,752.73 3130.86,774.35 3128.60,773.00 3120.66,778.65 3125.30,783.91 3129.03,783.80 3149.82,817.60 3150.85,823.96 3155.71,830.38"/>
    <poly id="162043153" type="building.commercial" color="255,230,230" fill="1" layer="-1.00" shape="3042.56,755.05 3092.11,724.94 3066.12,674.44 3016.58,704.55 3042.56,755.05"/>
    <poly id="162043154" type="building.commercial" color="255,230,230" fill="1" layer="-1.00" shape="3069.23,878.13 3068.82,874.19 3105.25,852.67 3108.35,855.73 3114.64,850.42 3082.63,799.58 3073.07,805.84 3038.15,826.49 3035.15,825.16 3030.08,829.38 3033.72,834.81 3038.03,835.42 3059.29,871.55 3060.78,877.28 3063.36,881.91 3069.23,878.13"/>
    <poly id="162043155" type="building.commercial" color="255,230,230" fill="1" layer="-1.00" shape="2971.94,814.47 2972.10,809.32 2978.29,809.95 3013.79,786.99 3009.48,780.04 3004.01,778.51 2984.43,744.44 2987.47,741.38 2982.29,734.24 2976.43,739.07 2976.80,743.16 2943.45,764.52 2940.77,762.85 2935.89,766.59 2939.82,773.15 2942.62,774.11 2962.80,808.21 2963.91,814.07 2967.20,819.39 2971.94,814.47"/>
    <poly id="17552938" type="amenity.bus_station" color="237,199,199" fill="1" layer="-1.00" shape="2700.56,1331.70 2699.76,1327.52 2695.49,1305.52 2695.10,1303.23 2639.32,1313.79 2639.86,1316.67 2603.09,1323.62 2564.83,1330.87 2564.24,1327.82 2533.25,1333.69 2534.59,1340.62 2538.01,1358.52 2538.74,1362.32 2607.33,1349.34 2700.56,1331.70"/>
    <poly id="17552938#1" type="building.yes" color="255,230,230" fill="1" layer="-1.00" shape="2700.56,1331.70 2699.76,1327.52 2695.49,1305.52 2695.10,1303.23 2639.32,1313.79 2639.86,1316.67 2603.09,1323.62 2564.83,1330.87 2564.24,1327.82 2533.25,1333.69 2534.59,1340.62 2538.01,1358.52 2538.74,1362.32 2607.33,1349.34 2700.56,1331.70"/>
    <poly id="227805643" type="waterway.river" color="181,209,209" fill="0" layer="-4.00" shape="4086.45,-77.51 3977.93,59.65 3622.45,490.75 3483.24,687.18 3411.23,875.32 3388.01,1016.13 3385.28,1143.68 3386.93,1203.95 3391.91,1241.29"/>
    <poly id="249697092" type="leisure.park" color="207,245,201" fill="1" layer="-2.00" shape="3077.88,1281.91 3124.76,1282.98 3139.05,1285.01 3149.57,1290.55 3155.07,1298.67 3156.19,1309.36 3151.89,1317.32 3145.12,1322.14 3141.96,1323.83 3130.54,1326.33 3123.34,1322.68 3106.42,1310.09 3090.23,1294.54 3077.88,1281.91"/>
    <poly id="249697093" type="leisure.park" color="207,245,201" fill="1" layer="-2.00" shape="3215.40,1231.37 3268.28,1226.45 3266.20,1184.21 3261.83,1167.96 3254.66,1154.92 3251.12,1150.98 3239.67,1142.10 3228.97,1137.59 3213.51,1135.95 3199.81,1137.56 3187.02,1144.54 3174.35,1155.07 3166.69,1169.24 3163.59,1183.13 3165.63,1190.63 3173.15,1207.75 3177.93,1215.44 3189.48,1222.39 3202.82,1226.85 3215.40,1231.37"/>
    <poly id="249697094" type="leisure.park" color="207,245,201" fill="1" layer="-2.00" shape="3099.49,1234.41 3092.53,1236.58 3088.14,1229.86 3087.43,1224.08 3091.61,1219.91 3116.04,1213.65 3125.73,1207.98 3134.46,1198.20 3141.91,1181.28 3153.48,1158.09 3165.19,1141.24 3181.03,1126.42 3204.60,1108.60 3238.39,1082.90 3252.23,1072.69 3257.67,1064.52 3265.78,1116.06 3267.71,1143.61 3263.93,1146.27 3260.20,1145.66 3250.55,1136.40 3237.13,1130.04 3222.88,1126.60 3211.42,1126.46 3195.06,1128.51 3182.29,1134.11 3172.20,1142.45 3162.30,1154.06 3157.75,1164.39 3154.21,1176.53 3154.15,1190.40 3156.84,1202.73 3164.82,1217.49 3176.15,1228.57 3182.12,1232.48 3173.83,1231.65 3107.35,1232.49 3099.49,1234.41"/>
    <poly id="249697146" type="natural.scrub" color="140,196,107" fill="1" layer="-4.00" shape="3129.22,1347.03 3135.96,1349.69 3146.55,1349.00 3155.53,1344.17 3161.40,1338.66 3163.85,1340.98 3164.98,1356.45 3168.17,1366.86 3168.08,1373.92 3163.39,1380.09 3129.22,1347.03"/>
    <poly id="249697147" type="natural.scrub" color="140,196,107" fill="1" layer="-4.00" shape="3006.78,1231.99 2982.01,1238.03 2971.64,1236.78 2965.67,1231.38 2961.74,1223.78 2961.42,1212.55 2965.90,1202.50 2972.13,1196.46 2979.65,1193.00 2988.28,1191.76 3000.08,1194.35 3010.98,1199.15 3018.12,1209.24 3023.37,1227.42 3006.78,1231.99"/>
    <poly id="249697148" type="landuse.grass" color="194,194,130" fill="1" layer="-3.00" shape="3162.83,1300.63 3166.63,1295.71 3170.99,1295.61 3175.61,1299.23 3176.47,1305.28 3152.93,1334.40 3144.16,1339.09 3135.74,1339.92 3127.96,1339.36 3128.46,1336.58 3137.03,1336.22 3144.99,1334.46 3152.52,1328.98 3159.46,1321.32 3162.69,1311.92 3163.54,1306.21 3162.83,1300.63"/>
    <poly id="249697149" type="natural.scrub" color="140,196,107" fill="1" layer="-4.00" shape="3147.99,1279.70 3194.85,1279.18 3195.10,1284.14 3181.87,1297.29 3179.44,1292.31 3174.49,1288.85 3165.47,1288.43 3159.68,1290.99 3154.62,1284.73 3147.99,1279.70"/>
    <poly id="249697150" type="landuse.grass" color="194,194,130" fill="1" layer="-3.00" shape="2969.76,1189.10 2991.77,1170.25 2996.94,1168.32 3001.85,1169.04 3006.26,1173.32 3005.52,1178.76 3003.25,1181.94 2999.43,1184.23 2979.18,1186.55 2969.76,1189.10"/>
    <poly id="249697151" type="landuse.grass" color="194,194,130" fill="1" layer="-3.00" shape="2993.93,1292.22 3029.37,1288.21 3052.88,1286.03 3069.21,1302.67 3093.88,1328.79 3065.01,1308.21 3047.09,1299.93 3026.16,1294.09 3010.47,1292.26 2993.93,1292.22"/>
    <poly id="250338833" type="building.yes" color="255,230,230" fill="1" layer="-1.00" shape="2544.64,1401.37 2598.75,1418.65 2618.75,1425.04 2621.22,1417.40 2628.22,1419.64 2620.92,1442.23 2631.33,1445.56 2619.59,1481.88 2626.45,1484.07 2604.91,1550.76 2609.90,1552.36 2603.12,1573.33 2607.95,1574.88 2605.39,1582.81 2593.55,1579.02 2588.07,1595.97 2583.28,1594.44 2576.56,1615.23 2567.67,1612.40 2560.25,1635.36 2553.54,1633.22 2556.58,1623.81 2480.64,1599.55 2544.64,1401.37"/>
    <poly id="250338833#1" type="shop.supermarket" color="237,199,255" fill="1" layer="-1.00" shape="2544.64,1401.37 2598.75,1418.65 2618.75,1425.04 2621.22,1417.40 2628.22,1419.64 2620.92,1442.23 2631.33,1445.56 2619.59,1481.88 2626.45,1484.07 2604.91,1550.76 2609.90,1552.36 2603.12,1573.33 2607.95,1574.88 2605.39,1582.81 2593.55,1579.02 2588.07,1595.97 2583.28,1594.44 2576.56,1615.23 2567.67,1612.40 2560.25,1635.36 2553.54,1633.22 2556.58,1623.81 2480.64,1599.55 2544.64,1401.37"/>
    <poly id="253718001" type="landuse.residential" color="235,235,227" fill="1" layer="-3.00" shape="2651.59,743.15 2701.81,750.07 2725.11,780.48 2730.89,800.15 2816.35,879.83 2794.04,893.51 2671.05,778.94 2651.59,743.15"/>
    <poly id="253718237" type="landuse.residential" color="235,235,227" fill="1" layer="-3.00" shape="3019.79,1411.28 3039.53,1382.39 3049.50,1325.47 3081.27,1339.70 3102.79,1357.24 3208.01,1481.57 3175.34,1500.33 2951.82,1524.47 2924.74,1567.08 2848.40,1501.03 2882.67,1443.40 2912.62,1455.95 2942.99,1416.89 2962.21,1405.71 2999.37,1403.84 3019.79,1411.28"/>
    <poly id="253719048" type="landuse.residential" color="235,235,227" fill="1" layer="-3.00" shape="1772.29,716.49 1778.38,719.34 1789.57,747.50 1788.00,759.33 1772.12,789.37 1771.08,808.08 1781.11,830.46 1808.52,866.46 1812.57,910.93 1799.82,944.55 1780.93,961.93 1732.00,891.67 1758.53,866.63 1759.83,852.02 1732.72,815.69 1728.34,796.91 1724.12,734.29 1772.29,716.49"/>
    <poly id="273034577" type="landuse.residential" color="235,235,227" fill="1" layer="-3.00" shape="2332.76,1730.82 2481.53,1739.37 2491.02,1631.95 2733.40,1761.19 2731.85,1813.01 2375.12,1803.72 2341.62,1817.70 2343.09,1797.98 2340.88,1766.66 2332.76,1730.82"/>
    <poly id="318368708" type="amenity.parking" color="184,184,179" fill="1" layer="-1.00" shape="2544.64,1401.37 2547.73,1395.01 2599.79,1384.98 2607.62,1387.92 2621.96,1384.06 2618.73,1394.45 2607.63,1406.39 2598.75,1418.65 2544.64,1401.37"/>
    <poly id="318368710" type="building.supermarket" color="255,230,230" fill="1" layer="-1.00" shape="3074.30,972.05 3061.07,977.25 3070.79,997.59 3048.41,1008.91 3050.63,1014.04 3045.08,1017.04 3073.07,1084.07 3079.76,1080.03 3089.39,1106.54 3239.10,1041.53 3205.19,963.99 3221.83,955.72 3229.97,952.83 3232.48,943.88 3223.44,938.08 3202.65,945.87 3201.14,942.45 3166.83,956.96 3156.43,935.80 3074.30,972.05"/>
    <poly id="318368710#1" type="shop.supermarket" color="237,199,255" fill="1" layer="-1.00" shape="3074.30,972.05 3061.07,977.25 3070.79,997.59 3048.41,1008.91 3050.63,1014.04 3045.08,1017.04 3073.07,1084.07 3079.76,1080.03 3089.39,1106.54 3239.10,1041.53 3205.19,963.99 3221.83,955.72 3229.97,952.83 3232.48,943.88 3223.44,938.08 3202.65,945.87 3201.14,942.45 3166.83,956.96 3156.43,935.80 3074.30,972.05"/>
    <poly id="318368711" type="amenity.parking" color="184,184,179" fill="1" layer="-1.00" shape="3045.08,1017.04 3006.26,1034.17 3065.15,1168.68 3104.31,1183.63 3127.98,1174.45 3140.27,1142.88 3136.58,1132.41 3173.01,1114.37 3196.99,1095.77 3210.83,1082.87 3224.93,1070.80 3242.67,1051.41 3246.08,1041.66 3245.33,1013.35 3240.96,989.62 3237.68,989.31 3221.83,955.72 3205.19,963.99 3239.10,1041.53 3089.39,1106.54 3079.76,1080.03 3073.07,1084.07 3045.08,1017.04"/>
    <poly id="327764346" type="building.transportation" color="255,230,230" fill="1" layer="-1.00" shape="2535.79,1329.74 2532.20,1315.00 2562.49,1306.31 2560.70,1298.47 2591.92,1290.40 2593.08,1297.92 2605.70,1294.64 2604.52,1287.43 2636.34,1282.19 2637.20,1289.39 2668.67,1286.65 2671.00,1302.00 2639.84,1304.74 2640.08,1311.62 2611.09,1316.27 2609.93,1308.44 2596.37,1311.71 2597.23,1318.91 2568.54,1325.76 2566.72,1320.11 2535.79,1329.74"/>
    <poly id="380438948" type="amenity.fuel" color="237,199,199" fill="1" layer="-1.00" shape="2679.27,1381.07 2705.82,1376.82 2703.24,1354.36 2675.03,1359.13 2679.27,1381.07"/>
    <poly id="380438948#1" type="building.roof" color="255,230,230" fill="1" layer="-1.00" shape="2679.27,1381.07 2705.82,1376.82 2703.24,1354.36 2675.03,1359.13 2679.27,1381.07"/>
    <poly id="398406519" type="amenity.fuel" color="237,199,199" fill="1" layer="-1.00" shape="2383.41,1365.29 2381.68,1358.96 2392.40,1353.97 2395.13,1359.79 2404.51,1355.43 2408.99,1364.94 2369.73,1383.19 2363.42,1374.72 2383.41,1365.29"/>
    <poly id="398406519#1" type="building.roof" color="255,230,230" fill="1" layer="-1.00" shape="2383.41,1365.29 2381.68,1358.96 2392.40,1353.97 2395.13,1359.79 2404.51,1355.43 2408.99,1364.94 2369.73,1383.19 2363.42,1374.72 2383.41,1365.29"/>
    <poly id="398406520" type="amenity.fuel" color="237,199,199" fill="1" layer="-1.00" shape="2187.16,1426.12 2204.10,1422.53 2199.64,1406.09 2182.70,1409.68 2187.16,1426.12"/>
    <poly id="398406520#1" type="building.roof" color="255,230,230" fill="1" layer="-1.00" shape="2187.16,1426.12 2204.10,1422.53 2199.64,1406.09 2182.70,1409.68 2187.16,1426.12"/>
    <poly id="4735146" type="waterway.riverbank" color="181,209,209" fill="1" layer="-4.00" shape="6645.81,6722.51 6609.06,6592.38 6511.35,6261.07 6451.45,6066.97 6336.57,5707.58 6300.26,5593.90 6243.87,5399.85 6187.65,5117.83 6125.10,4788.07 6111.11,4702.30 6053.69,4374.98 6042.77,4335.66 6015.55,4267.39 6001.35,4209.74 5990.41,4172.15 5981.70,4094.53 5971.00,4036.04 5935.33,3942.43 5892.46,3864.40 5834.19,3796.92 5740.74,3707.91 5607.49,3622.63 5325.02,3514.83 5209.78,3473.16 5086.61,3408.90 4957.30,3313.61 4866.08,3223.79 4773.24,3116.43 4757.40,3102.56 4726.95,3055.98 4715.17,3044.75 4705.14,3028.36 4697.52,3018.72 4615.41,2925.64 4353.30,2611.25 4241.56,2479.90 4129.35,2348.01 4079.37,2288.62 3990.71,2181.29 3953.96,2138.23 3901.06,2075.02 3602.31,1711.56 3539.26,1596.84 3474.95,1446.57 3417.54,1285.34 3405.04,1201.28 3409.61,1144.31 3422.98,1021.74 3448.76,882.14 3501.25,740.53 3532.62,680.83 3601.20,585.86 3747.97,395.75 3778.22,358.10 3895.55,214.10 4070.64,0.25 4004.64,-45.82 3885.53,100.77 3708.58,323.30 3594.87,457.78 3472.03,621.75 3431.73,696.15 3413.95,736.56 3402.61,786.36 3380.66,863.60 3356.05,1015.70 3355.01,1145.44 3367.27,1194.58 3372.98,1286.69 3402.45,1467.02 3446.65,1614.90 3482.86,1680.59 3509.71,1733.97 3516.73,1749.21 3530.29,1767.72 3547.94,1790.21 3570.55,1813.75 3604.27,1846.71 3616.67,1860.28 3625.46,1873.36 3633.27,1884.22 3651.68,1907.74 3672.12,1932.52 3690.57,1953.03 3700.30,1966.64 3712.33,1984.37 3735.74,2014.41 3783.39,2065.51 3834.31,2128.70 4052.87,2384.32 4084.18,2426.23 4116.05,2462.21 4152.85,2502.03 4186.63,2543.98 4206.68,2571.19 4224.34,2590.27 4267.98,2639.34 4317.48,2696.58 4372.80,2767.37 4413.47,2815.33 4781.20,3256.47 4852.99,3332.12 4933.66,3407.01 5003.07,3456.70 5096.16,3514.67 5222.39,3571.27 5404.54,3628.75 5592.44,3701.22 5629.59,3720.12 5679.94,3762.91 5721.37,3805.21 5791.97,3879.97 5858.09,3955.44 5902.55,4046.56 5940.27,4171.35 5952.64,4227.13 5955.08,4315.67 5961.44,4367.18 5976.82,4476.63 6011.43,4650.27 6042.16,4819.40 6110.00,5196.31 6122.41,5259.60 6148.00,5385.53 6170.54,5466.94 6214.09,5602.46 6239.27,5694.08 6288.68,5852.92 6301.77,5900.21 6364.09,6115.95 6391.07,6186.56 6437.23,6345.56 6464.13,6405.02 6483.26,6446.29 6510.34,6561.07 6531.96,6621.10 6545.15,6670.25 6563.83,6747.48 6645.81,6722.51"/>
    <poly id="473684658" type="leisure.park" color="207,245,201" fill="1" layer="-2.00" shape="3039.32,1209.62 3035.20,1166.03 3054.05,1191.83 3067.60,1202.61 3080.96,1206.31 3039.32,1209.62"/>
    <poly id="487552690" type="amenity.school" color="237,199,199" fill="1" layer="-1.00" shape="1939.99,777.26 2022.91,764.53 2016.99,700.08 1930.77,713.56 1939.99,777.26"/>
    <poly id="487834305" type="leisure.park" color="207,245,201" fill="1" layer="-2.00" shape="2356.91,1084.98 2372.53,1105.98 2376.11,1114.74 2370.30,1120.79 2335.96,1119.97 2328.65,1112.94 2339.79,1096.88 2347.03,1087.85 2356.91,1084.98"/>
    <poly id="488490616" type="amenity.school" color="237,199,199" fill="1" layer="-1.00" shape="1932.51,1311.15 2015.25,1299.92 2008.26,1253.05 1929.59,1266.36 1932.51,1311.15"/>
    <poly id="488922692" type="building.yes" color="255,230,230" fill="1" layer="-1.00" shape="2229.77,1119.34 2233.17,1122.80 2309.03,1120.31 2308.36,1115.62 2302.84,1110.17 2273.05,1079.83 2227.72,1081.07 2229.77,1119.34"/>
    <poly id="488922692#1" type="leisure.sports_centre" color="207,245,201" fill="1" layer="-2.00" shape="2229.77,1119.34 2233.17,1122.80 2309.03,1120.31 2308.36,1115.62 2302.84,1110.17 2273.05,1079.83 2227.72,1081.07 2229.77,1119.34"/>
    <poly id="488922692#2" type="sport.soccer,_volley,_basketball" color="79,230,125" fill="1" layer="-2.00" shape="2229.77,1119.34 2233.17,1122.80 2309.03,1120.31 2308.36,1115.62 2302.84,1110.17 2273.05,1079.83 2227.72,1081.07 2229.77,1119.34"/>
    <poly id="511815821" type="amenity.place_of_worship" color="237,199,199" fill="1" layer="-1.00" shape="2304.91,1016.04 2329.31,1012.26 2331.18,1016.10 2331.96,1020.18 2307.54,1024.51 2307.33,1019.88 2304.91,1016.04"/>
    <poly id="511815821#1" type="building.church" color="255,230,230" fill="1" layer="-1.00" shape="2304.91,1016.04 2329.31,1012.26 2331.18,1016.10 2331.96,1020.18 2307.54,1024.51 2307.33,1019.88 2304.91,1016.04"/>
    <poly id="548651991" type="leisure.garden" color="207,245,201" fill="1" layer="-2.00" shape="2579.19,1127.16 2572.71,1119.93 2576.66,1116.30 2583.55,1123.67 2582.30,1124.68 2580.78,1125.95 2579.19,1127.16"/>
    <poly id="80671636" type="leisure.nature_reserve" color="207,245,201" fill="1" layer="-2.00" shape="3782.56,2251.32 3806.40,2272.29 3820.40,2290.96 3820.23,2305.11 3782.77,2325.35 3756.34,2338.09 3744.27,2340.13 3725.68,2338.81 3709.32,2333.17 3695.14,2328.65 3536.48,2322.38 3519.99,2327.62 3498.31,2309.93 3469.04,2285.63 3448.56,2259.26 3426.91,2239.40 3399.84,2214.03 3368.17,2207.13 3330.89,2212.12 3329.38,2156.57 3337.50,2118.57 3351.21,2070.84 3352.80,2029.49 3343.46,1988.01 3318.67,1955.05 3310.29,1924.47 3292.32,1870.91 3283.98,1837.06 3285.36,1813.13 3297.96,1766.48 3298.46,1725.11 3309.80,1667.46 3303.15,1637.43 3323.49,1639.50 3337.06,1645.43 3339.67,1646.57 3349.95,1656.16 3365.97,1680.02 3398.75,1733.30 3435.43,1791.21 3492.35,1878.07 3538.30,1934.26 3575.74,1975.48 3597.65,1998.77 3611.78,2022.73 3633.61,2054.17 3664.68,2102.15 3707.52,2160.75 3782.56,2251.32"/>
    <poi id="1042136488" type="aeroway.helipad" color="grey" layer="3.00" x="2421.08" y="1447.78"/>
    <poi id="1042141381" type="aeroway.helipad" color="grey" layer="3.00" x="3083.19" y="762.50"/>
    <poi id="3247697993" type="shop.supermarket" color="237,199,255" layer="4.00" x="3074.57" y="1036.25"/>
    <poi id="3606550108" type="amenity.doctors" color="237,199,199" layer="4.00" x="2450.13" y="1050.69"/>
    <poi id="3837736909" type="shop.convenience" color="237,199,255" layer="4.00" x="2686.01" y="1373.21"/>
    <poi id="4024376252" type="amenity.arts_centre" color="237,199,199" layer="4.00" x="2178.12" y="922.98"/>
    <poi id="4230613715" type="shop.supermarket" color="237,199,255" layer="4.00" x="2143.55" y="1544.56"/>
    <poi id="4796903721" type="leisure.pitch" color="207,245,201" layer="3.00" x="2256.00" y="1102.60"/>
    <poi id="4796903721#1" type="sport.soccer,_volleyball,_basketball" color="79,230,125" layer="3.00" x="2256.00" y="1102.60"/>
    <poi id="4796903723" type="amenity.school" color="237,199,199" layer="4.00" x="2329.75" y="1088.15"/>
    <poi id="4807792266" type="amenity.clinic" color="237,199,199" layer="4.00" x="1860.67" y="1372.50"/>
</additional>
