<?xml version="1.0" encoding="UTF-8"?>

<!-- generated on Mon Jan  1 11:39:37 2018 by SUMO duarouter Version 0.30.0
<?xml version="1.0" encoding="UTF-8"?>

<configuration xmlns:xsi="http://www.w3.org/2001/XMLSchema-instance" xsi:noNamespaceSchemaLocation="http://sumo.dlr.de/xsd/duarouterConfiguration.xsd">

    <input>
        <net-file value="/media/jefferson/Dados/workspace/GoodsTracker/vanet/sp/place/osm.net.xml"/>
        <trip-files value="/media/jefferson/Dados/workspace/GoodsTracker/vanet/sp/place/osm.bus.trips.xml"/>
    </input>

    <output>
        <output-file value="/media/jefferson/Dados/workspace/GoodsTracker/vanet/sp/place/osm.bus.rou.xml"/>
    </output>

    <processing>
        <ignore-errors value="true"/>
    </processing>

    <time>
        <begin value="0"/>
        <end value="3600.0"/>
    </time>

    <report>
        <no-warnings value="true"/>
        <no-step-log value="true"/>
    </report>

</configuration>
-->

<routes xmlns:xsi="http://www.w3.org/2001/XMLSchema-instance" xsi:noNamespaceSchemaLocation="http://sumo.dlr.de/xsd/routes_file.xsd">
    <vType id="bus" vClass="bus"/>
    <vehicle id="bus0" type="bus" depart="0.00">
        <route edges="418990606 4902378#0 4902474 327956373#1 327956374 549928635 161392064#0"/>
    </vehicle>
    <vehicle id="bus1" type="bus" depart="0.32">
        <route edges="161392065 247833370#0 -473684642#1 -473684642#0 327754983 247833369#0 247833369#1 245546865 380438949#0 380438949#1 319447428 4559074#0 4559074#1 4559074#3 4559074#5 4559074#6 4559007 4902378#0 4902378#1 549917967 319453543#0 319453543#1"/>
    </vehicle>
    <vehicle id="bus2" type="bus" depart="0.64">
        <route edges="28788374 327764053 473691609 473691604#0 28885070#0 28885070#1 -340955662 -27803780#2 -27803780#1 179109642#1 28788370#0 28788371#0 28788368#0 -27490680 319453543#2 327761947 327761948#0 4523224#1 4523224#2 161389765 247833371#0 247833371#1 161389762 249870999#0 249870999#1"/>
    </vehicle>
    <vehicle id="bus3" type="bus" depart="0.96">
        <route edges="28788374 327764053 473691609 473691604#0 28885070#0 28885070#1 -340955662 -27803780#2 -28788366 -27840836"/>
    </vehicle>
    <vehicle id="bus4" type="bus" depart="1.28">
        <route edges="386278913#0 28788382#0 28788382#1 473691609 473691604#0 28885070#0 28885070#1 -340955662 -27803780#2 -27803780#1 179109642#1 28788370#0 28788371#0 28788368#0 -27490680 319453543#2 327761947 327761948#0 -27467656 221893285#0 221893225"/>
    </vehicle>
    <vehicle id="bus5" type="bus" depart="1.60">
        <route edges="179109642#0 179109642#1 28788370#0 28788371#0 28788368#0 -27490680 319453543#2 327761947 327761948#0 4523224#1 4523224#2 161389765 161392059#1 161392059#2 249697090#0 249697090#1 249697090#2 249697090#3 4734475#3 4734475#4 4734475#5 4734475#6 4734475#7 323823408 249871000 161392070 247833370#0 -473684642#1 -473684642#0 327754983 4734476#0"/>
    </vehicle>
    <vehicle id="bus6" type="bus" depart="1.92">
        <route edges="28788366 -27803780#1 179109642#1 28788370#0 28788371#0 28788368#0 -27490680 319453543#2 327761947 327761948#0 4523224#1 4523224#2 161389765 161392059#1 161392059#2 249697090#0 249697090#1 249697090#2 249697090#3 4734475#3 4734475#4 4734475#5 4734475#6 4734475#7 323823408 249871000 161392066 245546867 229481708#0 -39368522#5 -39368522#4 -39368522#2 -39368522#1 39368524#0 39368524#1"/>
    </vehicle>
    <vehicle id="bus7" type="bus" depart="2.24">
        <route edges="221893214#0 221893214#1 221893219#1"/>
    </vehicle>
    <vehicle id="bus8" type="bus" depart="2.56">
        <route edges="327764057#0 -4902394#4 -4902394#3 -4902394#2 549928648#1 549928648#2"/>
    </vehicle>
    <vehicle id="bus9" type="bus" depart="2.88">
        <route edges="28885040#5 28788382#1 473691609 473691604#0 28885070#0 28885070#1 -340955662 -27803780#2 -27803780#1 179109642#1 28788370#0 28788371#0 28788368#0 -27490680 319453543#2 327761947 327761948#0 4523224#1 4523224#2 319453544 161392067"/>
    </vehicle>
    <vehicle id="bus10" type="bus" depart="3.20">
        <route edges="179109642#2 -27840840#1 -27840840#0 -27490680 319453543#2 327761947 327761948#0 4523224#1 4523224#2 161389765 161392059#1 161392059#2 249697090#0 249697090#1 249697090#2 249697090#3 4734475#3 4734475#4 4734475#5 4734475#6 4734475#7 323823408 249871000 161392066 245546867 229481708#0 -39368522#5 -39368522#4 -39368522#2 -39368522#1"/>
    </vehicle>
    <vehicle id="bus11" type="bus" depart="3.52">
        <route edges="-511815818 -221893215#2 -221893215#1 -221893215#0 -340955667 27467656 4523224#1 4523224#2 161389765 161392059#1 161392059#2 249697090#0 249697090#1 249697090#2 249697090#3 4734475#3 4734475#4 4734475#5 4734475#6 4734475#7 323823408 249871000 161392066 245546865 380438949#0 380438949#1 319447428 327956372 327956373#0 327956373#1 4902374#0 4902440#0"/>
    </vehicle>
    <vehicle id="bus12" type="bus" depart="3.84">
        <route edges="-490522132 548651990#1 221893217#1 221893217#2"/>
    </vehicle>
    <vehicle id="bus13" type="bus" depart="4.16">
        <route edges="179109642#0 179109642#1 28788370#0 28788371#0 28788368#0 -27490680 319453543#2 327761947 327761948#0 4523224#1 4523224#2 161389765 161392059#1 161392059#2 249697090#0 249697090#1 249697090#2 249697090#3 4734475#3 4734475#4"/>
    </vehicle>
    <vehicle id="bus14" type="bus" depart="4.48">
        <route edges="39368522#0 39368522#1 39368522#2 -518474575 -473691590#0 39368524#2 380438949#1 319447428 4559074#0 4559074#1 4559074#3 4559074#5 4559074#6 4559007 4902378#0 4902378#1 549917967 319453543#0 319453543#1 319453543#2 327761947 327761948#0 -27467656 221893285#0 221893285#1 511815819 221893235 -221893214#0"/>
    </vehicle>
    <vehicle id="bus15" type="bus" depart="4.80">
        <route edges="221893267 -487551846#1 -28788382#5 -341224415#1 -341224415#0 341224416 -341224416"/>
    </vehicle>
    <vehicle id="bus16" type="bus" depart="5.12">
        <route edges="-27467655#3 27467655#3 -221893217#5 -221893217#4 -221893217#2 -221893217#1 -221893217#0 4734472 161389764 161392059#2 249697090#0 249697090#1 249697090#2 -386278899 221893219#2"/>
    </vehicle>
    <vehicle id="bus17" type="bus" depart="5.44">
        <route edges="327764059#0 327764059#1 549928642#0 -4902453"/>
    </vehicle>
    <vehicle id="bus18" type="bus" depart="5.76">
        <route edges="-490522132 548651990#1 -221893217#0 4734472 161389764 161392059#2 249697090#0 249697090#1 249697090#2 249697090#3 4734475#3 4734475#4 4734475#5 4734475#6 4734475#7 323823408 249871000 161392066 245546865 380438949#0 380438949#1 319447428 327956372 327956373#0 327956373#1 327956374 549928635 4902394#0 4902394#1 -549928648#0"/>
    </vehicle>
    <vehicle id="bus19" type="bus" depart="6.08">
        <route edges="28885040#3 -28885040#3 27570527#2 27570527#3 -340955662 -27803780#2 -27803780#1 179109642#1"/>
    </vehicle>
    <vehicle id="bus21" type="bus" depart="6.72">
        <route edges="380438949#1 319447428 327956372 327956373#0 327956373#1 327956374 161392064#3 27840836 28788366 -341224416 341224416"/>
    </vehicle>
    <vehicle id="bus22" type="bus" depart="7.04">
        <route edges="4902416#2 161392064#3 161392064#5 319453543#0 319453543#1 319453543#2 327761947 327761948#0 4523224#1 4523224#2 319453544 161392067 161392069#1 96097794 15968349"/>
    </vehicle>
    <vehicle id="bus23" type="bus" depart="7.36">
        <route edges="27570528#1 -27570528#1 -27570528#0 161392064#3 161392064#5 319453543#0 319453543#1 319453543#2 327761947 327761948#0 -27467656 221893285#0 221893285#1 511815819 221893235"/>
    </vehicle>
    <vehicle id="bus24" type="bus" depart="7.68">
        <route edges="344144147#0 344144147#1 4806304 327754983 247833369#0 247833369#1 245546865 380438949#0 380438949#1 319447428 4559074#0 4559074#1 4559074#3 4559074#5 4559074#6 4559007 4902378#0 4902378#1 549917967 319453543#0 319453543#1 27490680 -28788368#0 -28788371#0 -28788370#0"/>
    </vehicle>
    <vehicle id="bus25" type="bus" depart="8.00">
        <route edges="319453545#1 249697090#0 249697090#1 249697090#2 249697090#3 4734475#3 4734475#4 4734475#5 4734475#6 4734475#7 323823408 249871000 161392066 245546865 380438949#0 380438949#1 319447428 327956372 327956373#0 327956373#1 4902374#0 4902374#1 4902374#2 4902436#0 4902436#1"/>
    </vehicle>
    <vehicle id="bus26" type="bus" depart="8.32">
        <route edges="27803780#1 27803780#2 340955662 -28885070#1 -28885070#0 -473691604#0 -473691609"/>
    </vehicle>
    <vehicle id="bus27" type="bus" depart="8.64">
        <route edges="-28788368#0 -28788371#0 -28788370#0 -179109642#1 27803780#1 27803780#2 340955662 -27570527#3 -27570527#2 -27570527#1 4902394#3 4902394#4 4902394#5 4902394#6"/>
    </vehicle>
    <vehicle id="bus28" type="bus" depart="8.96">
        <route edges="27570527#0 27570527#1 27570527#2 27570527#3 -340955662 -27803780#2 -27803780#1 179109642#1 28788370#0 28788371#0 28788368#0 -27490680 319453543#2 327761947 327761948#0 4523224#1 4523224#2 161389765 161392059#1 161392059#2 249697090#0 249697090#1 249697090#2 249697090#3 4734475#3 4734475#4 4734475#5 4734475#6 4734475#7 323823408 249871000 161392070 4734490"/>
    </vehicle>
    <vehicle id="bus29" type="bus" depart="9.28">
        <route edges="-386278913#2 -386278913#1 386278913#1"/>
    </vehicle>
    <vehicle id="bus30" type="bus" depart="9.60">
        <route edges="-221893217#0 4734472 161389764 161392059#2 249697090#0 249697090#1 249697090#2 249697090#3 4734475#3 4734475#4 4734475#5 4734475#6 4734475#7 323823408 249871000 161392066 245546865 380438949#0 380438949#1 319447428 327956372 327956373#0 327956373#1 327956374 161392064#3 27840836 -27840840#2 -179109642#2 -179109642#1 -179109642#0 28885055#1"/>
    </vehicle>
    <vehicle id="bus31" type="bus" depart="9.92">
        <route edges="249697090#4 -249697087 249697087 4734475#0 4734475#3 4734475#4 4734475#5 4734475#6 4734475#7 323823408 249871000 161392066 245546865 380438949#0 380438949#1 319447428 4559074#0 4559074#1 4559074#3 4559074#5 4559074#6 4559007 4902378#0 4902378#1 549917967 319453543#0 319453543#1 27490680 27840838#0 27840838#1 -473691594 473691594"/>
    </vehicle>
    <vehicle id="bus32" type="bus" depart="10.24">
        <route edges="-27840840#3 -27840840#2 -27840840#1 -27840840#0 -27490680 319453543#2 327761947 327761948#0 -27467656 221893285#0 221893225 221893217#5"/>
    </vehicle>
    <vehicle id="bus33" type="bus" depart="10.56">
        <route edges="-511815820 511815820 -221893217#1 -548651990#1 -548651990#0"/>
    </vehicle>
    <vehicle id="bus36" type="bus" depart="11.52">
        <route edges="221893217#4 -221893217#4 -221893217#2 -221893217#1 -221893217#0 4734472 161389764 161392059#2 249697090#0 249697090#1 249697090#2 249697090#3 4734475#3 4734475#4 4734475#5 4734475#6 4734475#7 323823408 249871000 161392066 245546865 380438949#0 380438949#1 319447428 327956372 327956373#0 327956373#1 327956374 161392064#3 27840836 28788366"/>
    </vehicle>
    <vehicle id="bus37" type="bus" depart="11.84">
        <route edges="4559381 15968284 161392066 245546865 380438949#0 380438949#1 319447428 327956372 327956373#0 327956373#1 327956374 27570528#0 27570528#1 549928648#3"/>
    </vehicle>
    <vehicle id="bus38" type="bus" depart="12.16">
        <route edges="-518474788 -162043156 -39368522#4 -518474575 -473691590#0 39368524#2 380438949#1 319447428 4559074#0 4559074#1"/>
    </vehicle>
    <vehicle id="bus39" type="bus" depart="12.48">
        <route edges="344144147#0 344144147#1 4806304 327754983 247833369#0 247833369#1 245546865 380438949#0 380438949#1 319447428 327956372 327956373#0 327956373#1 327956374 161392064#3 27840836 28788366 -341224416 341224415#0 341224415#1 -28788382#4 27840841#2 27840841#3"/>
    </vehicle>
    <vehicle id="bus40" type="bus" depart="12.80">
        <route edges="344144147#0 344144147#1 4806304 327754983 4734476#0 4734476#1 319453545#0 161389756#1 8369310 -4734472"/>
    </vehicle>
    <vehicle id="bus41" type="bus" depart="13.12">
        <route edges="-27570528#1 -27570528#0 161392064#3 161392064#5 319453543#0 319453543#1 319453543#2 327761947 327761948#0 4523224#1 4523224#2 161389765 161392059#1 161392059#2 249697090#0 249697090#1 249697090#2 249697090#3 4734475#3 4734475#4 4734475#5 4734475#6 4734475#7 323823408 249871000 161392070 247833370#0 247833370#1"/>
    </vehicle>
    <vehicle id="bus42" type="bus" depart="13.44">
        <route edges="-341224415#1 -28788384#0 -27840841#0 340955662 -27570527#3 -27570527#2 -27570527#1 -4902394#2 -4902394#1"/>
    </vehicle>
    <vehicle id="bus43" type="bus" depart="13.76">
        <route edges="-221893215#1 -221893215#0 -340955667 27467656 4523224#1 4523224#2 161389765 161392059#1 161392059#2 249697090#0 249697090#1 249697090#2 249697090#3 4734475#3 4734475#4 4734475#5 4734475#6 4734475#7 323823408 249871000 161392066 245546865 380438949#0 380438949#1 319447428 327956372 327956373#0 327956373#1 327956374 161392064#3"/>
    </vehicle>
    <vehicle id="bus44" type="bus" depart="14.08">
        <route edges="-386278897 249697090#0 249697090#1 249697090#2 249697090#3 4734475#3 4734475#4 4734475#5 4734475#6 4734475#7 323823408 249871000 161392066 245546865 380438949#0 380438949#1 319447428 327956372 327956373#0 327956373#1 327956374 161392064#3 27840836 28788366 -341224416 341224415#0 341224415#1 -28788382#4 27840841#2 -27840841#2"/>
    </vehicle>
    <vehicle id="bus45" type="bus" depart="14.40">
        <route edges="221893214#0 -221893235 -221893217#2 -221893217#1 -221893217#0 4734472 161389764 161392059#2 249697090#0 249697090#1 249697090#2 249697090#3 4734475#3 4734475#4 4734475#5 4734475#6 4734475#7 323823408 249871000 161392066 245546865 380438949#0 380438949#1 319447428 327956372 327956373#0 327956373#1 327956374 27570528#0 27570528#1 549928648#3 -28885070#1 -28885070#0 473691604#1 473691601#0 473691601#1"/>
    </vehicle>
    <vehicle id="bus46" type="bus" depart="14.72">
        <route edges="-221893219#2 386278899 249697090#3 4734475#3 4734475#4 4734475#5 4734475#6 4734475#7 323823408 249871000 161392066 245546867 229481708#0 -39368522#5 -39368522#4 -39368522#2 473691589"/>
    </vehicle>
    <vehicle id="bus47" type="bus" depart="15.04">
        <route edges="39368522#0 39368522#1 39368522#2 -518474575 -473691590#0 39368524#2 380438949#1 319447428 4559074#0 4559074#1 4559074#3 4559074#5 4559074#6 4559007 4902378#0 4902378#1 549917967 319453543#0 319453543#1 319453543#2 327761947 327761948#0 -27467656 27467656"/>
    </vehicle>
    <vehicle id="bus48" type="bus" depart="15.36">
        <route edges="-28885040#0 161392064#1 161392064#3 27840836 -27840840#2 -179109642#2 -179109642#1 -179109642#0 28885055#1"/>
    </vehicle>
    <vehicle id="bus49" type="bus" depart="15.68">
        <route edges="-4902394#1 -4902394#0 161392064#0 161392064#1 161392064#3 161392064#5 319453543#0 319453543#1 319453543#2 327761947 327761948#0 4523224#1 4523224#2 161389765 161392059#1 161392059#2 249697090#0 249697090#1 249697090#2 249697090#3 4734475#3 4734475#4 4734475#5 4734475#6 4734475#7 323823408 249871000 161392070 247833370#0 247833370#1"/>
    </vehicle>
    <vehicle id="bus50" type="bus" depart="16.00">
        <route edges="341224415#1 -341224415#1 -341224415#0 341224416 -27803780#1 179109642#1 28788370#0 28788371#0 28788368#0 -27490680 319453543#2 327761947 327761948#0 4523224#1 4523224#2 161389765 161392059#1 161392059#2 249697090#0 249697090#1 249697090#2 249697090#3 4734475#3 4734475#4 4734475#5 4734475#6 4734475#7 323823408 249871000 161392066 245546865"/>
    </vehicle>
    <vehicle id="bus51" type="bus" depart="16.32">
        <route edges="161392064#3 161392064#5 319453543#0 319453543#1 319453543#2 327761947 327761948#0 -27467656 221893285#0 221893285#1 511815820 -221893217#1 -548651990#1 -548651990#0"/>
    </vehicle>
    <vehicle id="bus52" type="bus" depart="16.64">
        <route edges="-341224415#0 341224416 -27803780#1 179109642#1 28788370#0 28788371#0 28788368#0 -27490680 319453543#2 327761947 327761948#0 4523224#1 4523224#2 319453544 161392067 161392069#1 96097794 15968349"/>
    </vehicle>
    <vehicle id="bus53" type="bus" depart="16.96">
        <route edges="28788366 -27803780#1 179109642#1 28788370#0 28788371#0 28788368#0 -27490680 27490680"/>
    </vehicle>
    <vehicle id="bus54" type="bus" depart="17.28">
        <route edges="4559381 15968284 161392066 245546865 380438949#0 380438949#1 319447428 327956372 327956373#0 327956373#1 327956374"/>
    </vehicle>
    <vehicle id="bus55" type="bus" depart="17.60">
        <route edges="4902433 4902416#2 161392064#3 27840836"/>
    </vehicle>
    <vehicle id="bus56" type="bus" depart="17.92">
        <route edges="4734475#3 4734475#4 4734475#5 4734475#6 4734475#7 323823408 249871000 161392070 4734490 319453545#0 161389756#1 8369310 -4734472 221893217#0 -548651990#1"/>
    </vehicle>
    <vehicle id="bus57" type="bus" depart="18.24">
        <route edges="27467655#3 28885074#0 27467656 4523224#1 4523224#2 161389765 247833371#0 247833371#1 161389762 249870999#0 249870999#1"/>
    </vehicle>
    <vehicle id="bus59" type="bus" depart="18.88">
        <route edges="-518474788 -162043156 -39368522#4 -518474575 -473691590#0 39368524#2 380438949#1 319447428 327956372 327956373#0 327956373#1 327956374 161392064#3 27840836 28788366"/>
    </vehicle>
    <vehicle id="bus60" type="bus" depart="19.20">
        <route edges="-28788382#3 -473691601#0 -473691604#1 -473691604#0 -327764055 -327764057#2 -327764057#1 -4902394#4 -4902394#3 -4902394#2 -4902394#1 -4902394#0 549928646#0 4902436#0 4902451#1"/>
    </vehicle>
    <vehicle id="bus61" type="bus" depart="19.52">
        <route edges="-28885074#0 -221893217#5 -221893217#4 -221893217#2 -221893217#1 -221893217#0 4734472 161389764 161392059#2 249697090#0 249697090#1 249697090#2 249697090#3 4734475#3 4734475#4 4734475#5 4734475#6 4734475#7 323823408 249871000 161392066 245546865 380438949#0 380438949#1 319447428 327956372 327956373#0 327956373#1 327956374 161392064#3 27840836 -27840840#2 27840840#2"/>
    </vehicle>
    <vehicle id="bus62" type="bus" depart="19.84">
        <route edges="4559074#5 4559074#6 4559007 4902378#0 4902378#1 549917967 319453543#0 319453543#1 319453543#2 327761947 327761948#0 4523224#1 4523224#2 161389765 161389766#1"/>
    </vehicle>
    <vehicle id="bus63" type="bus" depart="20.16">
        <route edges="221893219#1 386278899 249697090#3 4734475#3 4734475#4 4734475#5 4734475#6 4734475#7 323823408 249871000 161392066 245546865 380438949#0 380438949#1 319447428 327956372 327956373#0 327956373#1 327956374 27570528#0 27570528#1 27570528#2 -27570527#2 28885040#3 28885040#4"/>
    </vehicle>
    <vehicle id="bus64" type="bus" depart="20.48">
        <route edges="-518474788 -162043156 39368522#5 229481708#1 229481708#2 229481708#3 4806304 327754983 247833369#0 247833369#1 245546867 229481708#0"/>
    </vehicle>
    <vehicle id="bus65" type="bus" depart="20.80">
        <route edges="28788361#0 -4902394#3 27570527#1 27570527#2 27570527#3 -340955662 -27803780#2 -27803780#1 179109642#1 28788370#0 28788371#0 28788368#0 -27490680 319453543#2 327761947 327761948#0 -27467656 221893285#0 221893285#1 511815820 -221893217#1 -548651990#1 548651990#1"/>
    </vehicle>
    <vehicle id="bus66" type="bus" depart="21.12">
        <route edges="39368522#0 39368522#1 39368522#2 39368522#4 39368522#5 229481708#1 229481708#2 229481708#3 4806304 327754983 4734476#0 4734476#1 319453545#0 319453545#1 249697090#0 249697090#1 249697090#2 249697090#3 249697090#4 -249697087"/>
    </vehicle>
    <vehicle id="bus67" type="bus" depart="21.44">
        <route edges="-386278897 249697090#0 249697090#1 249697090#2 249697090#3 4734475#3 4734475#4 4734475#5 4734475#6 4734475#7 323823408 249871000 161392066 245546865 380438949#0 380438949#1 319447428 4559074#0 4559074#1 4559074#3 4559074#5 4559074#6 4559007 4902378#0 4902378#1 549917967 319453543#0 319453543#1 27490680 -28788368#0 -28788371#0 -28788370#0"/>
    </vehicle>
    <vehicle id="bus68" type="bus" depart="21.76">
        <route edges="473691590#0 -473691590#0 39368524#2 380438949#1 319447428 327956372 327956373#0 327956373#1 327956374 161392064#3 27840836 28788366 -341224416 341224415#0 341224415#1 -28788382#4 27840841#2 -27840841#2"/>
    </vehicle>
    <vehicle id="bus69" type="bus" depart="22.08">
        <route edges="4734476#0 4734476#1 319453545#0 161389756#1 8369310 -4734472 221893217#0 221893217#1 221893217#2 221893217#4 221893217#5 -27467655#3 -27467655#2 -27467655#1 -27467655#0"/>
    </vehicle>
    <vehicle id="bus70" type="bus" depart="22.40">
        <route edges="221893285#1 511815820 -221893217#1 -221893217#0 4734472 161389764 161392059#2 249697090#0 249697090#1 249697090#2 249697090#3 4734475#3 4734475#4 4734475#5 4734475#6 4734475#7 323823408 249871000 161392066 245546865 380438949#0 380438949#1 319447428 327956372 327956373#0 327956373#1 327956374 549928635 549928642#0 549928642#1"/>
    </vehicle>
    <vehicle id="bus71" type="bus" depart="22.72">
        <route edges="221893214#0 -221893235 -221893217#2 -221893217#1 -221893217#0 4734472 161389764 161392059#2 249697090#0 249697090#1 249697090#2 249697090#3 4734475#3 4734475#4 4734475#5 4734475#6 4734475#7 323823408 249871000 161392066 245546865 380438949#0 380438949#1 319447428 327956372 327956373#0 327956373#1 327956374 549928635 4902394#0 4902394#1 4902394#2 4902394#3 4902394#4 4902394#5 386278913#0 386278913#1"/>
    </vehicle>
    <vehicle id="bus72" type="bus" depart="23.04">
        <route edges="-28788382#3 28788382#3 28788382#4 -341224415#1 -341224415#0 341224416 -27803780#1 179109642#1 28788370#0 28788371#0 28788368#0 -27490680 319453543#2 327761947 327761948#0 4523224#1 4523224#2 161389765 161392059#1 161392059#2 249697090#0 249697090#1 249697090#2 249697090#3 4734475#3 4734475#4 4734475#5 4734475#6 4734475#7 323823408 249871000 161392070 247833370#0"/>
    </vehicle>
    <vehicle id="bus73" type="bus" depart="23.36">
        <route edges="-179109642#1 179109642#1 28788370#0 28788371#0 28788368#0 -27490680 319453543#2 327761947 327761948#0 -27467656 221893285#0 221893285#1 511815819 -221893217#2"/>
    </vehicle>
    <vehicle id="bus74" type="bus" depart="23.68">
        <route edges="247833369#0 247833369#1 245546867 229481708#0 229481708#1 229481708#2 229481708#3 4806304 327754983 4734476#0 4734476#1 319453545#0 319453545#1 249697090#0 249697090#1 249697090#2 249697090#3"/>
    </vehicle>
    <vehicle id="bus76" type="bus" depart="24.32">
        <route edges="4734476#0 4734476#1 319453545#0 319453545#1 249697090#0 249697090#1 249697090#2 249697090#3 4734475#3 4734475#4 4734475#5 4734475#6 4734475#7 323823408 249871000 161392066 245546865 380438949#0 380438949#1 319447428 327956372 327956373#0 327956373#1 327956374 549928635 4902394#0 -28788365#0 28788365#0"/>
    </vehicle>
    <vehicle id="bus78" type="bus" depart="24.96">
        <route edges="473691607 327764053 473691609 473691604#0 28885070#0 28885070#1 -340955662 -27803780#2 -27803780#1"/>
    </vehicle>
    <vehicle id="bus79" type="bus" depart="25.28">
        <route edges="-39368524#0 39368522#1 39368522#2 -518474575 -473691590#0 39368524#2 380438949#1 319447428 4559074#0 4559074#1 4559074#3 4559074#5 4559074#6 4559007 4902378#0 4902378#1 549917967 319453543#0 319453543#1 319453543#2 327761947 327761948#0 -27467656 221893285#0 221893285#1 511815820"/>
    </vehicle>
    <vehicle id="bus80" type="bus" depart="25.60">
        <route edges="27840838#1 -27840838#1 -28788370#1 28788371#0 28788371#1 27840840#1 27840840#2 -27840836 161392064#5 319453543#0 549345534 4559074#0"/>
    </vehicle>
    <vehicle id="bus81" type="bus" depart="25.92">
        <route edges="4902416#2 161392064#3 161392064#5 319453543#0 319453543#1 319453543#2 327761947 327761948#0 -27467656 221893285#0 221893285#1 511815820 -221893217#1 -548651990#1 -548651990#0"/>
    </vehicle>
    <vehicle id="bus82" type="bus" depart="26.24">
        <route edges="28885070#0 28885070#1 -340955662 -27803780#2 -27803780#1 179109642#1 28788370#0 28788371#0 28788368#0 -27490680 319453543#2 327761947 327761948#0 -27467656 221893285#0 221893285#1 511815820 -221893217#1 -548651990#1 490522132"/>
    </vehicle>
    <vehicle id="bus83" type="bus" depart="26.56">
        <route edges="39368522#0 39368522#1 39368522#2 -518474575 -473691590#0 39368524#2 380438949#1 319447428 327956372 327956373#0 327956373#1 327956374 27570528#0 27570528#1"/>
    </vehicle>
    <vehicle id="bus84" type="bus" depart="26.88">
        <route edges="4559074#3 4559074#5 4559074#6 4559007 4902378#0 4902474 327956373#1 327956374 549928635 4902394#0 4902394#1 4902394#2 4902394#3 4902394#4 4902394#5 386278913#0 386278913#1 -27490679#0"/>
    </vehicle>
    <vehicle id="bus85" type="bus" depart="27.20">
        <route edges="-473691589 -39368522#1 39368524#0 -473691590#1"/>
    </vehicle>
    <vehicle id="bus87" type="bus" depart="27.84">
        <route edges="221893219#0 221893219#1 386278899 249697090#3 4734475#3 4734475#4 4734475#5 4734475#6 4734475#7 323823408 249871000 161392066 245546865 380438949#0 380438949#1 319447428 327956372 327956373#0 327956373#1 327956374 549928635 4902394#0 4902394#1"/>
    </vehicle>
    <vehicle id="bus88" type="bus" depart="28.16">
        <route edges="221893217#2 -221893217#2 -221893217#1 -221893217#0 4734472 161389764 161392059#2 249697090#0 249697090#1 249697090#2 249697090#3 4734475#3 4734475#4 4734475#5 4734475#6 4734475#7 323823408 249871000 161392066 245546865 380438949#0 380438949#1 319447428 327956372 327956373#0 327956373#1 327956374 161392064#3 27840836 28788366 -341224416 341224415#0 341224415#1 28788382#5"/>
    </vehicle>
    <vehicle id="bus89" type="bus" depart="28.48">
        <route edges="221893214#0 -221893235 -221893217#2 -221893217#1 -221893217#0 4734472 161389764 161392059#2 249697090#0 249697090#1 249697090#2 249697090#3 4734475#3 4734475#4 4734475#5 4734475#6 4734475#7 323823408 249871000 161392066 245546865 380438949#0 380438949#1 319447428 327956372 327956373#0 327956373#1 327956374 549928635 4902394#0 4902394#1 4902394#2 4902394#3 4902394#4 4902394#5 4902394#6"/>
    </vehicle>
    <vehicle id="bus90" type="bus" depart="28.80">
        <route edges="28885040#0 -28885040#0 161392064#1 161392064#3 161392064#5 319453543#0 319453543#1 319453543#2 327761947 327761948#0 4523224#1 4523224#2 161389765 161392059#1 161392059#2 249697090#0 249697090#1 249697090#2 249697090#3 4734475#3 4734475#4 4734475#5 4734475#6 4734475#7 323823408 249871000 161392070 247833370#0 -473684642#1 -473684643"/>
    </vehicle>
    <vehicle id="bus91" type="bus" depart="29.12">
        <route edges="386278913#1 27490679#1 327764053 473691609 473691604#0 28885070#0 28885070#1 -340955662 -27803780#2 -27803780#1 179109642#1 28788370#0 28788371#0 28788368#0 -27490680 319453543#2 327761947 327761948#0 4523224#1 4523224#2 161389765 161392059#1 161392059#2 249697090#0 249697090#1 249697090#2 249697090#3 4734475#3 4734475#4 4734475#5 4734475#6 4734475#7 323823408 249871000 161392066 245546867 229481708#0 229481708#1 229481708#2"/>
    </vehicle>
    <vehicle id="bus92" type="bus" depart="29.44">
        <route edges="28885073 -340955667 27467656 4523224#1 4523224#2 161389765 161392059#1 161392059#2 249697090#0 249697090#1 249697090#2 249697090#3 4734475#3 4734475#4 4734475#5 4734475#6 4734475#7 323823408 249871000 161392066 245546865 380438949#0 380438949#1 319447428 327956372 327956373#0 327956373#1 327956374 161392064#3 27840836 27840840#3 27840840#4"/>
    </vehicle>
    <vehicle id="bus93" type="bus" depart="29.76">
        <route edges="340955667 -340955667 27467656 4523224#1 4523224#2 161389765 161392059#1 161392059#2 161389758 161389756#1"/>
    </vehicle>
    <vehicle id="bus94" type="bus" depart="30.08">
        <route edges="27467655#2 27467655#3 -221893217#5 -221893217#4 -221893217#2 -221893217#1 -221893217#0 4734472 161389764 161392059#2 249697090#0 249697090#1 249697090#2 249697090#3 4734475#3 4734475#4 4734475#5 4734475#6 4734475#7 323823408 249871000 161392066 245546865 380438949#0 380438949#1 319447428 4559074#0 4559074#1 4559074#3 4559074#5 4559074#6 4559007 4902378#0 4902378#1 549917967 319453543#0 319453543#1 27490680 -28788368#0 -28788371#0 -28788370#0"/>
    </vehicle>
    <vehicle id="bus95" type="bus" depart="30.40">
        <route edges="-487551846#2 -487551846#1 -28788382#5 -341224415#1 -341224415#0 341224416 -27803780#1 179109642#1 28788370#0 28788371#0 28788368#0 -27490680 319453543#2 327761947 327761948#0 4523224#1 4523224#2 161389765 161392059#1 161392059#2 249697090#0 249697090#1 249697090#2 249697090#3 249697090#4 -249697087"/>
    </vehicle>
    <vehicle id="bus96" type="bus" depart="30.72">
        <route edges="247833370#0 -473684642#1 -473684642#0 327754983 247833369#0 247833369#1 245546865 380438949#0 380438949#1 319447428 327956372 327956373#0 327956373#1 327956374 161392064#3 27840836 28788366 -341224416 341224415#0 341224415#1 -28788382#4 27840841#2 27840841#3"/>
    </vehicle>
    <vehicle id="bus97" type="bus" depart="31.04">
        <route edges="327761947 327761948#0 -27467656 340955667 221893215#0 221893215#1 221893215#2 511815818"/>
    </vehicle>
    <vehicle id="bus98" type="bus" depart="31.36">
        <route edges="-28788382#0 28788382#0 28788382#1 473691609 473691604#0 28885070#0 28885070#1 -340955662 -27803780#2 -27803780#1 179109642#1 28788370#0 28788371#0 28788368#0 -27490680 319453543#2 327761947 327761948#0 4523224#1 4523224#2 319453544 161392067 161392068"/>
    </vehicle>
    <vehicle id="bus99" type="bus" depart="31.68">
        <route edges="319453543#0 319453543#1 27490680 -28788368#0 -28788371#0 -28788370#0 -179109642#1 27803780#1 -341224416 341224415#0 341224415#1 -28788382#4 27840841#2"/>
    </vehicle>
    <vehicle id="bus100" type="bus" depart="32.00">