<?xml version="1.0"?>
<!-- generated on 2018-01-01 11:39:43.687144 by $Id: randomTrips.py 23999 2017-04-21 09:04:47Z behrisch $
  options: <doubleminus>fringe-factor 1 <doubleminus>prefix ped <doubleminus>vehicle-class pedestrian -n /media/jefferson/Dados/workspace/GoodsTracker/vanet/sp/place/osm.net.xml -r /media/jefferson/Dados/workspace/GoodsTracker/vanet/sp/place/osm.pedestrian.rou.xml -p 0.11 -e 3600 -o /media/jefferson/Dados/workspace/GoodsTracker/vanet/sp/place/osm.pedestrian.trips.xml
-->
<routes xmlns:xsi="http://www.w3.org/2001/XMLSchema-instance" xsi:noNamespaceSchemaLocation="http://sumo.dlr.de/xsd/routes_file.xsd">
    <vType id="pedestrian" vClass="pedestrian" />
    <trip id="ped0" depart="0.00" from="323823408" to="-28788365#1" type="pedestrian"/>
    <trip id="ped1" depart="0.11" from="-221893235" to="-28788374" type="pedestrian"/>
    <trip id="ped2" depart="0.22" from="27840840#0" to="-4902433" type="pedestrian"/>
    <trip id="ped3" depart="0.33" from="-28788361#1" to="-27840841#2" type="pedestrian"/>
    <trip id="ped4" depart="0.44" from="-28788371#1" to="549928648#1" type="pedestrian"/>
    <trip id="ped5" depart="0.55" from="341224415#0" to="-39368524#0" type="pedestrian"/>
    <trip id="ped6" depart="0.66" from="327764057#2" to="473691604#1" type="pedestrian"/>
    <trip id="ped7" depart="0.77" from="245546867" to="4902440#0" type="pedestrian"/>
    <trip id="ped8" depart="0.88" from="-490522132" to="-27840840#1" type="pedestrian"/>
    <trip id="ped9" depart="0.99" from="-487551846#1" to="4902436#0" type="pedestrian"/>
    <trip id="ped10" depart="1.10" from="327764057#0" to="327754983" type="pedestrian"/>
    <trip id="ped11" depart="1.21" from="221893215#1" to="-27467655#1" type="pedestrian"/>
    <trip id="ped12" depart="1.32" from="27840840#1" to="221893219#2" type="pedestrian"/>
    <trip id="ped13" depart="1.43" from="4559074#3" to="-511815819" type="pedestrian"/>
    <trip id="ped14" depart="1.54" from="162043157#0" to="-327764055" type="pedestrian"/>
    <trip id="ped15" depart="1.65" from="-221893285#0" to="4523238#1" type="pedestrian"/>
    <trip id="ped16" depart="1.76" from="27570528#0" to="518474788" type="pedestrian"/>
    <trip id="ped17" depart="1.87" from="-518474788" to="-27570527#2" type="pedestrian"/>
    <trip id="ped18" depart="1.98" from="-221893217#1" to="249697090#0" type="pedestrian"/>
    <trip id="ped19" depart="2.09" from="-27803780#1" to="-27570527#1" type="pedestrian"/>
    <trip id="ped20" depart="2.20" from="28788382#2" to="-473691590#1" type="pedestrian"/>
    <trip id="ped21" depart="2.31" from="27840840#2" to="-28885074#0" type="pedestrian"/>
    <trip id="ped22" depart="2.42" from="-221893237" to="-28788371#0" type="pedestrian"/>
    <trip id="ped23" depart="2.53" from="319453543#1" to="-221893219#0" type="pedestrian"/>
    <trip id="ped24" depart="2.64" from="-28885040#4" to="327956373#0" type="pedestrian"/>
    <trip id="ped25" depart="2.75" from="-28885040#4" to="401773369" type="pedestrian"/>
    <trip id="ped26" depart="2.86" from="327761947" to="327956373#1" type="pedestrian"/>
    <trip id="ped27" depart="2.97" from="548651990#1" to="-28788382#0" type="pedestrian"/>
    <trip id="ped28" depart="3.08" from="28885070#0" to="-28788371#0" type="pedestrian"/>
    <trip id="ped29" depart="3.19" from="473691604#1" to="-28788366" type="pedestrian"/>
    <trip id="ped30" depart="3.30" from="4902436#0" to="-4902394#5" type="pedestrian"/>
    <trip id="ped31" depart="3.41" from="473691590#1" to="28885040#3" type="pedestrian"/>
    <trip id="ped32" depart="3.52" from="-27803780#1" to="-28885040#2" type="pedestrian"/>
    <trip id="ped33" depart="3.63" from="27570527#3" to="161392068" type="pedestrian"/>
    <trip id="ped34" depart="3.74" from="-39368524#2" to="249697090#1" type="pedestrian"/>
    <trip id="ped35" depart="3.85" from="28788365#1" to="-221893225" type="pedestrian"/>
    <trip id="ped36" depart="3.96" from="-28788366" to="-340955664" type="pedestrian"/>
    <trip id="ped37" depart="4.07" from="549928642#0" to="-39368524#1" type="pedestrian"/>
    <trip id="ped38" depart="4.18" from="27570528#4" to="327956373#0" type="pedestrian"/>
    <trip id="ped39" depart="4.29" from="161392064#5" to="161392064#5" type="pedestrian"/>
    <trip id="ped40" depart="4.40" from="28788382#3" to="-28788361#2" type="pedestrian"/>
    <trip id="ped41" depart="4.51" from="27467655#2" to="-28885070#0" type="pedestrian"/>
    <trip id="ped42" depart="4.62" from="549928642#0" to="386278913#1" type="pedestrian"/>
    <trip id="ped43" depart="4.73" from="28885073" to="229481708#3" type="pedestrian"/>
    <trip id="ped44" depart="4.84" from="327956372" to="28788370#0" type="pedestrian"/>
    <trip id="ped45" depart="4.95" from="4523238#1" to="-386278913#1" type="pedestrian"/>
    <trip id="ped46" depart="5.06" from="4734475#4" to="473684642#0" type="pedestrian"/>
    <trip id="ped47" depart="5.17" from="27840841#2" to="-340955664" type="pedestrian"/>
    <trip id="ped48" depart="5.28" from="386278913#1" to="-473691601#0" type="pedestrian"/>
    <trip id="ped49" depart="5.39" from="249697090#4" to="161392064#5" type="pedestrian"/>
    <trip id="ped50" depart="5.50" from="340955662" to="4734474" type="pedestrian"/>
    <trip id="ped51" depart="5.61" from="327956373#1" to="-386278899" type="pedestrian"/>
    <trip id="ped52" depart="5.72" from="-221893217#5" to="4559074#6" type="pedestrian"/>
    <trip id="ped53" depart="5.83" from="341224415#1" to="-39368524#2" type="pedestrian"/>
    <trip id="ped54" depart="5.94" from="327956372" to="-27570528#2" type="pedestrian"/>
    <trip id="ped55" depart="6.05" from="28788361#2" to="549928648#2" type="pedestrian"/>
    <trip id="ped56" depart="6.16" from="-179109642#1" to="-27803780#0" type="pedestrian"/>
    <trip id="ped57" depart="6.27" from="28788366" to="-221893217#4" type="pedestrian"/>
    <trip id="ped58" depart="6.38" from="549928635" to="4902378#1" type="pedestrian"/>
    <trip id="ped59" depart="6.49" from="-27570528#4" to="39368522#1" type="pedestrian"/>
    <trip id="ped60" depart="6.60" from="27840840#2" to="4734488" type="pedestrian"/>
    <trip id="ped61" depart="6.71" from="27467655#1" to="-27570527#1" type="pedestrian"/>
    <trip id="ped62" depart="6.82" from="27840840#0" to="27840840#3" type="pedestrian"/>
    <trip id="ped63" depart="6.93" from="-487551846#2" to="-162043157#1" type="pedestrian"/>
    <trip id="ped64" depart="7.04" from="4902394#3" to="-28885040#0" type="pedestrian"/>
    <trip id="ped65" depart="7.15" from="327754983" to="-179109642#1" type="pedestrian"/>
    <trip id="ped66" depart="7.26" from="4902394#0" to="548651990#1" type="pedestrian"/>
    <trip id="ped67" depart="7.37" from="-27467655#2" to="27840838#1" type="pedestrian"/>
    <trip id="ped68" depart="7.48" from="4806303" to="-27840840#2" type="pedestrian"/>
    <trip id="ped69" depart="7.59" from="161392067" to="161392065" type="pedestrian"/>
    <trip id="ped70" depart="7.70" from="-473691590#0" to="28788365#2" type="pedestrian"/>
    <trip id="ped71" depart="7.81" from="319453545#0" to="229481708#1" type="pedestrian"/>
    <trip id="ped72" depart="7.92" from="-28885040#5" to="-27570528#0" type="pedestrian"/>
    <trip id="ped73" depart="8.03" from="-4902436#0" to="-518474575" type="pedestrian"/>
    <trip id="ped74" depart="8.14" from="402922224" to="28885070#1" type="pedestrian"/>
    <trip id="ped75" depart="8.25" from="221893235" to="323823408" type="pedestrian"/>
    <trip id="ped76" depart="8.36" from="4734475#4" to="-386278913#1" type="pedestrian"/>
    <trip id="ped77" depart="8.47" from="229481708#3" to="4902394#3" type="pedestrian"/>
    <trip id="ped78" depart="8.58" from="247833370#1" to="28885070#1" type="pedestrian"/>
    <trip id="ped79" depart="8.69" from="28885073" to="28788366" type="pedestrian"/>
    <trip id="ped80" depart="8.80" from="4902374#2" to="4806304" type="pedestrian"/>
    <trip id="ped81" depart="8.91" from="221893219#1" to="27840840#1" type="pedestrian"/>
    <trip id="ped82" depart="9.02" from="161389765" to="-341224415#1" type="pedestrian"/>
    <trip id="ped83" depart="9.13" from="96097834" to="-179109642#1" type="pedestrian"/>
    <trip id="ped84" depart="9.24" from="27467655#1" to="4902394#5" type="pedestrian"/>
    <trip id="ped85" depart="9.35" from="27840840#1" to="221893240" type="pedestrian"/>
    <trip id="ped86" depart="9.46" from="28788361#0" to="386278897" type="pedestrian"/>
    <trip id="ped87" depart="9.57" from="4523238#1" to="-162043156" type="pedestrian"/>
    <trip id="ped88" depart="9.68" from="4734475#7" to="341224415#0" type="pedestrian"/>
    <trip id="ped89" depart="9.79" from="-27840841#3" to="511815820" type="pedestrian"/>
    <trip id="ped90" depart="9.90" from="-27570528#1" to="4902394#3" type="pedestrian"/>
    <trip id="ped91" depart="10.01" from="-327764057#1" to="-27840836" type="pedestrian"/>
    <trip id="ped92" depart="10.12" from="-473691601#0" to="402922224" type="pedestrian"/>
    <trip id="ped93" depart="10.23" from="27467655#3" to="-221893219#0" type="pedestrian"/>
    <trip id="ped94" depart="10.34" from="340955662" to="161389756#1" type="pedestrian"/>
    <trip id="ped95" depart="10.45" from="221893214#0" to="162043157#0" type="pedestrian"/>
    <trip id="ped96" depart="10.56" from="4523224#1" to="28788366" type="pedestrian"/>
    <trip id="ped97" depart="10.67" from="4559381" to="161392059#1" type="pedestrian"/>
    <trip id="ped98" depart="10.78" from="229481708#1" to="161389766#1" type="pedestrian"/>
    <trip id="ped99" depart="10.89" from="4734475#5" to="28788365#1" type="pedestrian"/>
    <trip id="ped100" depart="11.00" from="27840840#3" to="229481708#5" type="pedestrian"/>
    <trip id="ped101" depart="11.11" from="161392065" to="548651990#1" type="pedestrian"/>
    <trip id="ped102" depart="11.22" from="4902394#3" to="4559007" type="pedestrian"/>
    <trip id="ped103" depart="11.33" from="-27803780#2" to="161392068" type="pedestrian"/>
    <trip id="ped104" depart="11.44" from="161392069#1" to="4902451#1" type="pedestrian"/>
    <trip id="ped105" depart="11.55" from="28788384#1" to="161389758" type="pedestrian"/>
    <trip id="ped106" depart="11.66" from="247833370#1" to="-27570527#1" type="pedestrian"/>
    <trip id="ped107" depart="11.77" from="-4902451#1" to="27490680" type="pedestrian"/>
    <trip id="ped108" depart="11.88" from="27840838#2" to="229481708#0" type="pedestrian"/>
    <trip id="ped109" depart="11.99" from="4559074#5" to="229481708#2" type="pedestrian"/>
    <trip id="ped110" depart="12.10" from="344144147#0" to="39368524#1" type="pedestrian"/>
    <trip id="ped111" depart="12.21" from="27570527#2" to="-487551846#0" type="pedestrian"/>
    <trip id="ped112" depart="12.32" from="-39368524#2" to="-28788382#0" type="pedestrian"/>
    <trip id="ped113" depart="12.43" from="28788384#1" to="245546865" type="pedestrian"/>
    <trip id="ped114" depart="12.54" from="161392069#1" to="-179109642#2" type="pedestrian"/>
    <trip id="ped115" depart="12.65" from="-27467655#2" to="-27467655#1" type="pedestrian"/>
    <trip id="ped116" depart="12.76" from="221893237" to="27467655#2" type="pedestrian"/>
    <trip id="ped117" depart="12.87" from="161392070" to="-548651990#0" type="pedestrian"/>
    <trip id="ped118" depart="12.98" from="-221893215#2" to="27803780#0" type="pedestrian"/>
    <trip id="ped119" depart="13.09" from="-518474575" to="341224412" type="pedestrian"/>
    <trip id="ped120" depart="13.20" from="28885070#2" to="96097834" type="pedestrian"/>
    <trip id="ped121" depart="13.31" from="-27570528#4" to="4559007" type="pedestrian"/>
    <trip id="ped122" depart="13.42" from="418990606" to="-27570528#2" type="pedestrian"/>
    <trip id="ped123" depart="13.53" from="-28885070#0" to="249870999#0" type="pedestrian"/>
    <trip id="ped124" depart="13.64" from="4559074#0" to="27570528#2" type="pedestrian"/>
    <trip id="ped125" depart="13.75" from="27490679#1" to="475330829" type="pedestrian"/>
    <trip id="ped126" depart="13.86" from="39368522#5" to="-221893215#0" type="pedestrian"/>
    <trip id="ped127" depart="13.97" from="473691607" to="473691604#1" type="pedestrian"/>
    <trip id="ped128" depart="14.08" from="4559074#5" to="-341224415#0" type="pedestrian"/>
    <trip id="ped129" depart="14.19" from="-28788365#0" to="473691609" type="pedestrian"/>
    <trip id="ped130" depart="14.30" from="327764057#0" to="28885055#1" type="pedestrian"/>
    <trip id="ped131" depart="14.41" from="4328546#1" to="-28885040#0" type="pedestrian"/>
    <trip id="ped132" depart="14.52" from="4902394#2" to="221893285#1" type="pedestrian"/>
    <trip id="ped133" depart="14.63" from="4902378#0" to="319453543#1" type="pedestrian"/>
    <trip id="ped134" depart="14.74" from="-473691601#0" to="4902474" type="pedestrian"/>
    <trip id="ped135" depart="14.85" from="4559074#5" to="-4902394#0" type="pedestrian"/>
    <trip id="ped136" depart="14.96" from="4902394#5" to="4806303" type="pedestrian"/>
    <trip id="ped137" depart="15.07" from="4734472" to="28788365#1" type="pedestrian"/>
    <trip id="ped138" depart="15.18" from="473691609" to="27570527#3" type="pedestrian"/>
    <trip id="ped139" depart="15.29" from="-28885040#2" to="-341224415#0" type="pedestrian"/>
    <trip id="ped140" depart="15.40" from="386278913#0" to="-39368524#2" type="pedestrian"/>
    <trip id="ped141" depart="15.51" from="4523224#1" to="4559074#5" type="pedestrian"/>
    <trip id="ped142" depart="15.62" from="-39368524#2" to="-4902394#1" type="pedestrian"/>
    <trip id="ped143" depart="15.73" from="27570528#1" to="473691601#1" type="pedestrian"/>
    <trip id="ped144" depart="15.84" from="-4902394#3" to="-28788371#0" type="pedestrian"/>
    <trip id="ped145" depart="15.95" from="4559381" to="340955662" type="pedestrian"/>
    <trip id="ped146" depart="16.06" from="380438949#1" to="-327764055" type="pedestrian"/>
    <trip id="ped147" depart="16.17" from="327761947" to="402922224" type="pedestrian"/>
    <trip id="ped148" depart="16.28" from="4559074#3" to="39368522#2" type="pedestrian"/>
    <trip id="ped149" depart="16.39" from="327764057#1" to="-27570527#2" type="pedestrian"/>
    <trip id="ped150" depart="16.50" from="28788382#2" to="28885070#0" type="pedestrian"/>
    <trip id="ped151" depart="16.61" from="-27840841#1" to="319447428" type="pedestrian"/>
    <trip id="ped152" depart="16.72" from="4559074#0" to="27570528#1" type="pedestrian"/>
    <trip id="ped153" depart="16.83" from="221893215#0" to="39368522#4" type="pedestrian"/>
    <trip id="ped154" depart="16.94" from="-27570528#1" to="549928635" type="pedestrian"/>
    <trip id="ped155" depart="17.05" from="179109642#1" to="-28885055#1" type="pedestrian"/>
    <trip id="ped156" depart="17.16" from="27840838#0" to="-327764057#0" type="pedestrian"/>
    <trip id="ped157" depart="17.27" from="473691609" to="-511815819" type="pedestrian"/>
    <trip id="ped158" depart="17.38" from="319453544" to="-221893285#1" type="pedestrian"/>
    <trip id="ped159" depart="17.49" from="4734475#5" to="-39368524#2" type="pedestrian"/>
    <trip id="ped160" depart="17.60" from="386278913#1" to="28788384#1" type="pedestrian"/>
    <trip id="ped161" depart="17.71" from="4902378#1" to="-28885070#1" type="pedestrian"/>
    <trip id="ped162" depart="17.82" from="4734487" to="487551846#0" type="pedestrian"/>
    <trip id="ped163" depart="17.93" from="27570528#2" to="28885040#3" type="pedestrian"/>
    <trip id="ped164" depart="18.04" from="221893219#0" to="4902474" type="pedestrian"/>
    <trip id="ped165" depart="18.15" from="340955662" to="-340955662" type="pedestrian"/>
    <trip id="ped166" depart="18.26" from="-221893225" to="-39368523" type="pedestrian"/>
    <trip id="ped167" depart="18.37" from="-473691601#0" to="28788382#4" type="pedestrian"/>
    <trip id="ped168" depart="18.48" from="162043157#0" to="28885040#0" type="pedestrian"/>
    <trip id="ped169" depart="18.59" from="549917967" to="-221893285#1" type="pedestrian"/>
    <trip id="ped170" depart="18.70" from="-28788366" to="4734475#0" type="pedestrian"/>
    <trip id="ped171" depart="18.81" from="-221893217#4" to="-27840836" type="pedestrian"/>
    <trip id="ped172" depart="18.92" from="386278913#1" to="-27840840#0" type="pedestrian"/>
    <trip id="ped173" depart="19.03" from="386278899" to="-28788365#0" type="pedestrian"/>
    <trip id="ped174" depart="19.14" from="221893237" to="-386278913#0" type="pedestrian"/>
    <trip id="ped175" depart="19.25" from="28788384#1" to="4902394#0" type="pedestrian"/>
    <trip id="ped176" depart="19.36" from="380438949#1" to="490522132" type="pedestrian"/>
    <trip id="ped177" depart="19.47" from="-27570528#1" to="-473691604#0" type="pedestrian"/>
    <trip id="ped178" depart="19.58" from="221893232" to="28788368#0" type="pedestrian"/>
    <trip id="ped179" depart="19.69" from="401773369" to="28788370#1" type="pedestrian"/>
    <trip id="ped180" depart="19.80" from="96097834" to="28788366" type="pedestrian"/>
    <trip id="ped181" depart="19.91" from="4734488" to="4328546#2" type="pedestrian"/>
    <trip id="ped182" depart="20.02" from="162043156" to="27840841#3" type="pedestrian"/>
    <trip id="ped183" depart="20.13" from="548651990#0" to="511815818" type="pedestrian"/>
    <trip id="ped184" depart="20.24" from="28788370#1" to="39368522#4" type="pedestrian"/>
    <trip id="ped185" depart="20.35" from="4734490" to="511815819" type="pedestrian"/>
    <trip id="ped186" depart="20.46" from="161392064#0" to="327761947" type="pedestrian"/>
    <trip id="ped187" depart="20.57" from="-473691590#1" to="221893215#2" type="pedestrian"/>
    <trip id="ped188" depart="20.68" from="327761948#0" to="179109642#2" type="pedestrian"/>
    <trip id="ped189" depart="20.79" from="161389756#1" to="-28788374" type="pedestrian"/>
    <trip id="ped190" depart="20.90" from="-27840841#1" to="-386278913#1" type="pedestrian"/>
    <trip id="ped191" depart="21.01" from="-27467655#2" to="-221893235" type="pedestrian"/>
    <trip id="ped192" depart="21.12" from="-27840838#2" to="-473684642#1" type="pedestrian"/>
    <trip id="ped193" depart="21.23" from="-4902394#6" to="-27803780#1" type="pedestrian"/>
    <trip id="ped194" depart="21.34" from="-221893217#4" to="-341224415#1" type="pedestrian"/>
    <trip id="ped195" depart="21.45" from="-490522132" to="27840840#2" type="pedestrian"/>
    <trip id="ped196" depart="21.56" from="27467655#2" to="-473691590#0" type="pedestrian"/>
    <trip id="ped197" depart="21.67" from="27840840#3" to="39368523" type="pedestrian"/>
    <trip id="ped198" depart="21.78" from="4734487" to="-39368522#1" type="pedestrian"/>
    <trip id="ped199" depart="21.89" from="-27490679#1" to="-28885070#0" type="pedestrian"/>
    <trip id="ped200" depart="22.00" from="-27803780#1" to="162043156" type="pedestrian"/>
    <trip id="ped201" depart="22.11" from="28885070#1" to="-221893219#0" type="pedestrian"/>
    <trip id="ped202" depart="22.22" from="-27467655#1" to="327764059#1" type="pedestrian"/>
    <trip id="ped203" depart="22.33" from="229481708#2" to="327764059#0" type="pedestrian"/>
    <trip id="ped204" depart="22.44" from="27570527#3" to="39368524#1" type="pedestrian"/>
    <trip id="ped205" depart="22.55" from="4806303" to="229481708#2" type="pedestrian"/>
    <trip id="ped206" depart="22.66" from="-28885074#0" to="27803780#2" type="pedestrian"/>
    <trip id="ped207" depart="22.77" from="-28788371#1" to="4734472" type="pedestrian"/>
    <trip id="ped208" depart="22.88" from="4523238#0" to="-473691590#0" type="pedestrian"/>
    <trip id="ped209" depart="22.99" from="-4902436#1" to="-221893217#1" type="pedestrian"/>
    <trip id="ped210" depart="23.10" from="4734474" to="327764053" type="pedestrian"/>
    <trip id="ped211" depart="23.21" from="28788382#2" to="-27570528#0" type="pedestrian"/>
    <trip id="ped212" depart="23.32" from="27840841#1" to="4328546#1" type="pedestrian"/>
    <trip id="ped213" depart="23.43" from="-341224412" to="-386278913#1" type="pedestrian"/>
    <trip id="ped214" depart="23.54" from="-27803780#1" to="473691609" type="pedestrian"/>
    <trip id="ped215" depart="23.65" from="39368524#0" to="4902440#0" type="pedestrian"/>
    <trip id="ped216" depart="23.76" from="-27467656" to="161389766#1" type="pedestrian"/>
    <trip id="ped217" depart="23.87" from="28788382#4" to="-27467656" type="pedestrian"/>
    <trip id="ped218" depart="23.98" from="27840840#3" to="-28885040#4" type="pedestrian"/>
    <trip id="ped219" depart="24.09" from="4734476#1" to="4559074#6" type="pedestrian"/>
    <trip id="ped220" depart="24.20" from="162043157#1" to="-4902453" type="pedestrian"/>
    <trip id="ped221" depart="24.31" from="161389758" to="27840841#1" type="pedestrian"/>
    <trip id="ped222" depart="24.42" from="27467655#2" to="-221893235" type="pedestrian"/>
    <trip id="ped223" depart="24.53" from="-27840838#2" to="4734472" type="pedestrian"/>
    <trip id="ped224" depart="24.64" from="-39368524#1" to="511815820" type="pedestrian"/>
    <trip id="ped225" depart="24.75" from="-28788382#3" to="-548651990#1" type="pedestrian"/>
    <trip id="ped226" depart="24.86" from="161389764" to="179109642#0" type="pedestrian"/>
    <trip id="ped227" depart="24.97" from="4902433" to="161392059#2" type="pedestrian"/>
    <trip id="ped228" depart="25.08" from="28885070#2" to="28885040#4" type="pedestrian"/>
    <trip id="ped229" depart="25.19" from="247833371#0" to="327956373#0" type="pedestrian"/>
    <trip id="ped230" depart="25.30" from="221893232" to="229481708#1" type="pedestrian"/>
    <trip id="ped231" depart="25.41" from="221893232" to="-162043157#1" type="pedestrian"/>
    <trip id="ped232" depart="25.52" from="-4734472" to="549928648#2" type="pedestrian"/>
    <trip id="ped233" depart="25.63" from="341224415#1" to="4734476#1" type="pedestrian"/>
    <trip id="ped234" depart="25.74" from="-39368522#2" to="-27570527#3" type="pedestrian"/>
    <trip id="ped235" depart="25.85" from="-487551846#2" to="-27570527#1" type="pedestrian"/>
    <trip id="ped236" depart="25.96" from="4902433" to="249870999#0" type="pedestrian"/>
    <trip id="ped237" depart="26.07" from="-327764057#2" to="221893235" type="pedestrian"/>
    <trip id="ped238" depart="26.18" from="-386278913#2" to="-162043157#0" type="pedestrian"/>
    <trip id="ped239" depart="26.29" from="-8154723" to="221893215#1" type="pedestrian"/>
    <trip id="ped240" depart="26.40" from="28788382#4" to="28788368#0" type="pedestrian"/>
    <trip id="ped241" depart="26.51" from="319453543#2" to="229481708#3" type="pedestrian"/>
    <trip id="ped242" depart="26.62" from="-27467655#1" to="548651990#1" type="pedestrian"/>
    <trip id="ped243" depart="26.73" from="-4902394#6" to="27840838#2" type="pedestrian"/>
    <trip id="ped244" depart="26.84" from="28788365#1" to="-221893219#0" type="pedestrian"/>
    <trip id="ped245" depart="26.95" from="4902394#1" to="249697090#4" type="pedestrian"/>
    <trip id="ped246" depart="27.06" from="-27570528#0" to="-28788366" type="pedestrian"/>
    <trip id="ped247" depart="27.17" from="-27570527#1" to="490522132" type="pedestrian"/>
    <trip id="ped248" depart="27.28" from="179109642#1" to="27467655#2" type="pedestrian"/>
    <trip id="ped249" depart="27.39" from="473691604#1" to="4523224#1" type="pedestrian"/>
    <trip id="ped250" depart="27.50" from="15968284" to="-27490679#0" type="pedestrian"/>
    <trip id="ped251" depart="27.61" from="28885040#3" to="-28788371#0" type="pedestrian"/>
    <trip id="ped252" depart="27.72" from="28788365#0" to="-39368522#1" type="pedestrian"/>
    <trip id="ped253" depart="27.83" from="28788382#2" to="161389765" type="pedestrian"/>
    <trip id="ped254" depart="27.94" from="4902374#0" to="4902374#2" type="pedestrian"/>
    <trip id="ped255" depart="28.05" from="28885070#1" to="27570528#1" type="pedestrian"/>
    <trip id="ped256" depart="28.16" from="319453543#0" to="28788382#0" type="pedestrian"/>
    <trip id="ped257" depart="28.27" from="-221893285#0" to="319453545#1" type="pedestrian"/>
    <trip id="ped258" depart="28.38" from="4328546#1" to="518474575" type="pedestrian"/>
    <trip id="ped259" depart="28.49" from="-341224415#1" to="4902374#2" type="pedestrian"/>
    <trip id="ped260" depart="28.60" from="4902453" to="-221893257" type="pedestrian"/>
    <trip id="ped261" depart="28.71" from="-386278913#2" to="28788365#1" type="pedestrian"/>
    <trip id="ped262" depart="28.82" from="327754983" to="28885040#0" type="pedestrian"/>
    <trip id="ped263" depart="28.93" from="4902474" to="-221893232" type="pedestrian"/>
    <trip id="ped264" depart="29.04" from="161392069#1" to="247833370#1" type="pedestrian"/>
    <trip id="ped265" depart="29.15" from="-27840840#4" to="15968284" type="pedestrian"/>
    <trip id="ped266" depart="29.26" from="319453544" to="475330829" type="pedestrian"/>
    <trip id="ped267" depart="29.37" from="4559007" to="-473691601#0" type="pedestrian"/>
    <trip id="ped268" depart="29.48" from="-4902394#1" to="4734490" type="pedestrian"/>
    <trip id="ped269" depart="29.59" from="4523224#2" to="221893215#1" type="pedestrian"/>
    <trip id="ped270" depart="29.70" from="28788370#1" to="4902394#4" type="pedestrian"/>
    <trip id="ped271" depart="29.81" from="27570528#1" to="549917967" type="pedestrian"/>
    <trip id="ped272" depart="29.92" from="-28788384#0" to="-27803780#2" type="pedestrian"/>
    <trip id="ped273" depart="30.03" from="-27840840#3" to="28788365#0" type="pedestrian"/>
    <trip id="ped274" depart="30.14" from="-518474575" to="-341224415#1" type="pedestrian"/>
    <trip id="ped275" depart="30.25" from="-473691604#2" to="-221893215#1" type="pedestrian"/>
    <trip id="ped276" depart="30.36" from="27490679#0" to="221893232" type="pedestrian"/>
    <trip id="ped277" depart="30.47" from="27840836" to="549928642#1" type="pedestrian"/>
    <trip id="ped278" depart="30.58" from="-28885040#5" to="-327764057#1" type="pedestrian"/>
    <trip id="ped279" depart="30.69" from="-221893217#4" to="27840840#4" type="pedestrian"/>
    <trip id="ped280" depart="30.80" from="319453543#0" to="39368522#4" type="pedestrian"/>
    <trip id="ped281" depart="30.91" from="27803780#1" to="-28885040#0" type="pedestrian"/>
    <trip id="ped282" depart="31.02" from="-221893285#1" to="341224416" type="pedestrian"/>
    <trip id="ped283" depart="31.13" from="-39368524#1" to="340955664" type="pedestrian"/>
    <trip id="ped284" depart="31.24" from="341224415#1" to="319453543#1" type="pedestrian"/>
    <trip id="ped285" depart="31.35" from="162043156" to="249697090#1" type="pedestrian"/>
    <trip id="ped286" depart="31.46" from="-221893285#1" to="386278913#0" type="pedestrian"/>
    <trip id="ped287" depart="31.57" from="-341224416" to="4902416#2" type="pedestrian"/>
    <trip id="ped288" depart="31.68" from="-473684642#1" to="4902416#2" type="pedestrian"/>
    <trip id="ped289" depart="31.79" from="-511815818" to="473691589" type="pedestrian"/>
    <trip id="ped290" depart="31.90" from="4902374#0" to="-39368522#4" type="pedestrian"/>
    <trip id="ped291" depart="32.01" from="28788365#1" to="27570527#3" type="pedestrian"/>
    <trip id="ped292" depart="32.12" from="-518474788" to="4734474" type="pedestrian"/>
    <trip id="ped293" depart="32.23" from="319453545#0" to="-327764057#0" type="pedestrian"/>
    <trip id="ped294" depart="32.34" from="-27570527#3" to="221893215#1" type="pedestrian"/>
    <trip id="ped295" depart="32.45" from="-549928648#0" to="-386278899" type="pedestrian"/>
    <trip id="ped296" depart="32.56" from="549928646#0" to="386278913#1" type="pedestrian"/>
    <trip id="ped297" depart="32.67" from="221893214#1" to="-27803780#2" type="pedestrian"/>
    <trip id="ped298" depart="32.78" from="28788374" to="4328546#2" type="pedestrian"/>
    <trip id="ped299" depart="32.89" from="-490522132" to="161389762" type="pedestrian"/>
    <trip id="ped300" depart="33.00" from="162043157#1" to="249697090#4" type="pedestrian"/>
    <trip id="ped301" depart="33.11" from="39368522#2" to="-221893214#0" type="pedestrian"/>
    <trip id="ped302" depart="33.22" from="39368522#2" to="161389762" type="pedestrian"/>
    <trip id="ped303" depart="33.33" from="39368522#1" to="-27490679#1" type="pedestrian"/>
    <trip id="ped304" depart="33.44" from="511815820" to="-221893217#4" type="pedestrian"/>
    <trip id="ped305" depart="33.55" from="221893225" to="249697090#0" type="pedestrian"/>
    <trip id="ped306" depart="33.66" from="39368522#1" to="39368522#5" type="pedestrian"/>
    <trip id="ped307" depart="33.77" from="-162043157#0" to="249697090#3" type="pedestrian"/>
    <trip id="ped308" depart="33.88" from="-28885040#4" to="-28788365#1" type="pedestrian"/>
    <trip id="ped309" depart="33.99" from="-341224415#0" to="-473684643" type="pedestrian"/>
    <trip id="ped310" depart="34.10" from="4734475#4" to="221893215#1" type="pedestrian"/>
    <trip id="ped311" depart="34.21" from="229481708#0" to="4328546#1" type="pedestrian"/>
    <trip id="ped312" depart="34.32" from="221893285#1" to="-487551846#1" type="pedestrian"/>
    <trip id="ped313" depart="34.43" from="473691609" to="221893214#1" type="pedestrian"/>
    <trip id="ped314" depart="34.54" from="-28788382#0" to="-4902394#0" type="pedestrian"/>
    <trip id="ped315" depart="34.65" from="27570527#3" to="4559074#0" type="pedestrian"/>
    <trip id="ped316" depart="34.76" from="28885040#3" to="327956373#0" type="pedestrian"/>
    <trip id="ped317" depart="34.87" from="4902378#1" to="-473691601#0" type="pedestrian"/>
    <trip id="ped318" depart="34.98" from="549928642#0" to="-27490679#1" type="pedestrian"/>
    <trip id="ped319" depart="35.09" from="4902453" to="4328546#2" type="pedestrian"/>
    <trip id="ped320" depart="35.20" from="-27467656" to="8369310" type="pedestrian"/>
    <trip id="ped321" depart="35.31" from="473691604#0" to="386278897" type="pedestrian"/>
    <trip id="ped322" depart="35.42" from="39368522#5" to="-549928648#0" type="pedestrian"/>