<?xml version="1.0"?>
<!-- generated on 2017-12-31 15:02:15.312927 by $Id: randomTrips.py 23999 2017-04-21 09:04:47Z behrisch $
  options: <doubleminus>prefix Ped <doubleminus>vehicle-class Pedestrian -n /media/jefferson/Dados/workspace/GoodsTracker/vanet/sp/place/osm.net.xml -r /media/jefferson/Dados/workspace/GoodsTracker/vanet/sp/place/osm.Pedestrian.rou.xml -p 1 -e 3600 -l -o /media/jefferson/Dados/workspace/GoodsTracker/vanet/sp/place/osm.Pedestrian.trips.xml
-->
<routes xmlns:xsi="http://www.w3.org/2001/XMLSchema-instance" xsi:noNamespaceSchemaLocation="http://sumo.dlr.de/xsd/routes_file.xsd">
    <vType id="Pedestrian" vClass="Pedestrian" />
    <trip id="Ped0" depart="0.00" from="-28885040#5" to="-340955664" type="Pedestrian"/>
    <trip id="Ped1" depart="1.00" from="-386278897" to="-27570528#3" type="Pedestrian"/>
    <trip id="Ped2" depart="2.00" from="340955667" to="27840841#0" type="Pedestrian"/>
    <trip id="Ped3" depart="3.00" from="247833371#0" to="28885070#2" type="Pedestrian"/>
    <trip id="Ped4" depart="4.00" from="28788365#2" to="490522132" type="Pedestrian"/>
    <trip id="Ped5" depart="5.00" from="28788370#0" to="39368524#2" type="Pedestrian"/>
    <trip id="Ped6" depart="6.00" from="27840838#0" to="-27570527#0" type="Pedestrian"/>
    <trip id="Ped7" depart="7.00" from="27570528#2" to="221893217#0" type="Pedestrian"/>
    <trip id="Ped8" depart="8.00" from="-39368522#5" to="-221893215#2" type="Pedestrian"/>
    <trip id="Ped9" depart="9.00" from="221893279" to="27840841#0" type="Pedestrian"/>
    <trip id="Ped10" depart="10.00" from="249871000" to="340955664" type="Pedestrian"/>
    <trip id="Ped11" depart="11.00" from="221893219#1" to="247833369#0" type="Pedestrian"/>
    <trip id="Ped12" depart="12.00" from="4902416#2" to="247833371#1" type="Pedestrian"/>
    <trip id="Ped13" depart="13.00" from="-221893219#2" to="4734488" type="Pedestrian"/>
    <trip id="Ped14" depart="14.00" from="27490679#0" to="-386278913#0" type="Pedestrian"/>
    <trip id="Ped15" depart="15.00" from="161392070" to="4902416#2" type="Pedestrian"/>
    <trip id="Ped16" depart="16.00" from="386278913#1" to="249870999#0" type="Pedestrian"/>
    <trip id="Ped17" depart="17.00" from="-28788382#1" to="-179109642#0" type="Pedestrian"/>
    <trip id="Ped18" depart="18.00" from="4902378#1" to="340955662" type="Pedestrian"/>
    <trip id="Ped19" depart="19.00" from="341224415#0" to="161392063" type="Pedestrian"/>
    <trip id="Ped20" depart="20.00" from="473691590#1" to="-549928648#2" type="Pedestrian"/>
    <trip id="Ped21" depart="21.00" from="4902440#0" to="4559074#5" type="Pedestrian"/>
    <trip id="Ped22" depart="22.00" from="28788366" to="39368522#4" type="Pedestrian"/>
    <trip id="Ped23" depart="23.00" from="4734488" to="-27840836" type="Pedestrian"/>
    <trip id="Ped24" depart="24.00" from="27570528#2" to="4902394#6" type="Pedestrian"/>
    <trip id="Ped25" depart="25.00" from="4902436#0" to="-341224416" type="Pedestrian"/>
    <trip id="Ped26" depart="26.00" from="-28885070#2" to="229481708#5" type="Pedestrian"/>
    <trip id="Ped27" depart="27.00" from="39368523" to="4734488" type="Pedestrian"/>
    <trip id="Ped28" depart="28.00" from="-28788382#0" to="221893214#1" type="Pedestrian"/>
    <trip id="Ped29" depart="29.00" from="28788382#5" to="-27570527#0" type="Pedestrian"/>
    <trip id="Ped30" depart="30.00" from="221893214#1" to="39368523" type="Pedestrian"/>
    <trip id="Ped31" depart="31.00" from="221893217#1" to="340955664" type="Pedestrian"/>
    <trip id="Ped32" depart="32.00" from="-28788370#1" to="-39368523" type="Pedestrian"/>
    <trip id="Ped33" depart="33.00" from="247833369#0" to="28788384#1" type="Pedestrian"/>
    <trip id="Ped34" depart="34.00" from="221893219#0" to="-28885040#0" type="Pedestrian"/>
    <trip id="Ped35" depart="35.00" from="96097794" to="221893237" type="Pedestrian"/>
    <trip id="Ped36" depart="36.00" from="27570528#3" to="327764057#2" type="Pedestrian"/>
    <trip id="Ped37" depart="37.00" from="-28788365#2" to="-341224416" type="Pedestrian"/>
    <trip id="Ped38" depart="38.00" from="344144147#0" to="-340955664" type="Pedestrian"/>
    <trip id="Ped39" depart="39.00" from="-473691607" to="386278913#0" type="Pedestrian"/>
    <trip id="Ped40" depart="40.00" from="27840838#1" to="-327764057#2" type="Pedestrian"/>
    <trip id="Ped41" depart="41.00" from="473691601#0" to="4902440#0" type="Pedestrian"/>
    <trip id="Ped42" depart="42.00" from="-28788362" to="4902436#0" type="Pedestrian"/>
    <trip id="Ped43" depart="43.00" from="221893214#1" to="-28788382#5" type="Pedestrian"/>
    <trip id="Ped44" depart="44.00" from="-179109642#0" to="15968349" type="Pedestrian"/>
    <trip id="Ped45" depart="45.00" from="161389766#1" to="549928642#1" type="Pedestrian"/>
    <trip id="Ped46" depart="46.00" from="-341224415#1" to="4902378#1" type="Pedestrian"/>
    <trip id="Ped47" depart="47.00" from="-473684642#0" to="-249697087" type="Pedestrian"/>
    <trip id="Ped48" depart="48.00" from="-221893219#1" to="-340955664" type="Pedestrian"/>
    <trip id="Ped49" depart="49.00" from="-473691601#0" to="-39368522#4" type="Pedestrian"/>
    <trip id="Ped50" depart="50.00" from="-221893237" to="221893219#1" type="Pedestrian"/>
    <trip id="Ped51" depart="51.00" from="327956374" to="-179109642#1" type="Pedestrian"/>
    <trip id="Ped52" depart="52.00" from="179109642#0" to="161392071" type="Pedestrian"/>
    <trip id="Ped53" depart="53.00" from="28885040#2" to="386278899" type="Pedestrian"/>
    <trip id="Ped54" depart="54.00" from="327956372" to="249870999#1" type="Pedestrian"/>
    <trip id="Ped55" depart="55.00" from="39368523" to="-28788384#1" type="Pedestrian"/>
    <trip id="Ped56" depart="56.00" from="161389758" to="247833369#1" type="Pedestrian"/>
    <trip id="Ped57" depart="57.00" from="340955661" to="-221893219#0" type="Pedestrian"/>
    <trip id="Ped58" depart="58.00" from="-327764053" to="28788370#0" type="Pedestrian"/>
    <trip id="Ped59" depart="59.00" from="28885055#1" to="319453543#2" type="Pedestrian"/>
    <trip id="Ped60" depart="60.00" from="27490679#0" to="4328546#1" type="Pedestrian"/>
    <trip id="Ped61" depart="61.00" from="-39368522#5" to="341224416" type="Pedestrian"/>
    <trip id="Ped62" depart="62.00" from="-28885040#1" to="-27467655#0" type="Pedestrian"/>
    <trip id="Ped63" depart="63.00" from="-28788366" to="-27490679#0" type="Pedestrian"/>
    <trip id="Ped64" depart="64.00" from="386278899" to="340955662" type="Pedestrian"/>
    <trip id="Ped65" depart="65.00" from="-549928648#1" to="473691601#0" type="Pedestrian"/>
    <trip id="Ped66" depart="66.00" from="401773369" to="319453543#2" type="Pedestrian"/>
    <trip id="Ped67" depart="67.00" from="221893217#0" to="-221893219#0" type="Pedestrian"/>
    <trip id="Ped68" depart="68.00" from="-221893217#0" to="28788382#2" type="Pedestrian"/>
    <trip id="Ped69" depart="69.00" from="-27570528#4" to="549345534" type="Pedestrian"/>
    <trip id="Ped70" depart="70.00" from="-28885055#1" to="27467655#2" type="Pedestrian"/>
    <trip id="Ped71" depart="71.00" from="39368524#1" to="161392064#5" type="Pedestrian"/>
    <trip id="Ped72" depart="72.00" from="473691601#0" to="28885070#1" type="Pedestrian"/>
    <trip id="Ped73" depart="73.00" from="4734487" to="161392069#0" type="Pedestrian"/>
    <trip id="Ped74" depart="74.00" from="-27467656" to="-28788361#1" type="Pedestrian"/>
    <trip id="Ped75" depart="75.00" from="4902433" to="4734475#4" type="Pedestrian"/>
    <trip id="Ped76" depart="76.00" from="-511815818" to="-386278913#0" type="Pedestrian"/>
    <trip id="Ped77" depart="77.00" from="-473691590#1" to="27467655#2" type="Pedestrian"/>
    <trip id="Ped78" depart="78.00" from="4902394#1" to="221893219#1" type="Pedestrian"/>
    <trip id="Ped79" depart="79.00" from="-27803780#0" to="4902394#6" type="Pedestrian"/>
    <trip id="Ped80" depart="80.00" from="249871000" to="-341224415#1" type="Pedestrian"/>
    <trip id="Ped81" depart="81.00" from="-39368524#2" to="-28788384#1" type="Pedestrian"/>
    <trip id="Ped82" depart="82.00" from="28788368#0" to="4523224#2" type="Pedestrian"/>
    <trip id="Ped83" depart="83.00" from="327956372" to="-28885070#0" type="Pedestrian"/>
    <trip id="Ped84" depart="84.00" from="-386278897" to="161392069#1" type="Pedestrian"/>
    <trip id="Ped85" depart="85.00" from="4734472" to="-221893217#2" type="Pedestrian"/>
    <trip id="Ped86" depart="86.00" from="327764059#0" to="-27467656" type="Pedestrian"/>
    <trip id="Ped87" depart="87.00" from="249871000" to="28788366" type="Pedestrian"/>
    <trip id="Ped88" depart="88.00" from="-341224416" to="473691609" type="Pedestrian"/>
    <trip id="Ped89" depart="89.00" from="28885040#2" to="549345534" type="Pedestrian"/>
    <trip id="Ped90" depart="90.00" from="28788365#2" to="-28788382#3" type="Pedestrian"/>
    <trip id="Ped91" depart="91.00" from="27467655#3" to="4902394#6" type="Pedestrian"/>
    <trip id="Ped92" depart="92.00" from="-162043157#0" to="-4902433" type="Pedestrian"/>
    <trip id="Ped93" depart="93.00" from="4902374#0" to="-27840840#3" type="Pedestrian"/>
    <trip id="Ped94" depart="94.00" from="4559381" to="-27840840#0" type="Pedestrian"/>
    <trip id="Ped95" depart="95.00" from="4806303" to="15968284" type="Pedestrian"/>
    <trip id="Ped96" depart="96.00" from="28788382#2" to="27570528#1" type="Pedestrian"/>
    <trip id="Ped97" depart="97.00" from="-386278913#1" to="340955664" type="Pedestrian"/>
    <trip id="Ped98" depart="98.00" from="162043157#1" to="-27570527#2" type="Pedestrian"/>
    <trip id="Ped99" depart="99.00" from="-39368522#5" to="221893214#1" type="Pedestrian"/>
    <trip id="Ped100" depart="100.00" from="487551846#1" to="319447428" type="Pedestrian"/>
    <trip id="Ped101" depart="101.00" from="-221893285#0" to="249870999#1" type="Pedestrian"/>
    <trip id="Ped102" depart="102.00" from="28788366" to="487551846#0" type="Pedestrian"/>
    <trip id="Ped103" depart="103.00" from="-27840841#1" to="27490680" type="Pedestrian"/>
    <trip id="Ped104" depart="104.00" from="-473691609" to="-27840840#3" type="Pedestrian"/>
    <trip id="Ped105" depart="105.00" from="319453545#1" to="4734488" type="Pedestrian"/>
    <trip id="Ped106" depart="106.00" from="4734487" to="511815819" type="Pedestrian"/>
    <trip id="Ped107" depart="107.00" from="-4902394#2" to="28788382#1" type="Pedestrian"/>
    <trip id="Ped108" depart="108.00" from="28788382#1" to="-221893217#1" type="Pedestrian"/>
    <trip id="Ped109" depart="109.00" from="4902378#1" to="-221893285#1" type="Pedestrian"/>
    <trip id="Ped110" depart="110.00" from="221893219#1" to="179109642#2" type="Pedestrian"/>
    <trip id="Ped111" depart="111.00" from="27840841#0" to="-27467656" type="Pedestrian"/>
    <trip id="Ped112" depart="112.00" from="-28788365#1" to="-249697087" type="Pedestrian"/>
    <trip id="Ped113" depart="113.00" from="-27840841#0" to="-221893240" type="Pedestrian"/>
    <trip id="Ped114" depart="114.00" from="221893215#2" to="-27840836" type="Pedestrian"/>
    <trip id="Ped115" depart="115.00" from="418990606" to="-4902453" type="Pedestrian"/>
    <trip id="Ped116" depart="116.00" from="247833369#0" to="162043157#0" type="Pedestrian"/>
    <trip id="Ped117" depart="117.00" from="-28788370#0" to="4902436#1" type="Pedestrian"/>
    <trip id="Ped118" depart="118.00" from="27490679#0" to="4523224#2" type="Pedestrian"/>
    <trip id="Ped119" depart="119.00" from="473691609" to="-327764057#0" type="Pedestrian"/>
    <trip id="Ped120" depart="120.00" from="-27570527#1" to="221893219#1" type="Pedestrian"/>
    <trip id="Ped121" depart="121.00" from="247833371#1" to="8154723" type="Pedestrian"/>
    <trip id="Ped122" depart="122.00" from="161392063" to="-27490679#0" type="Pedestrian"/>
    <trip id="Ped123" depart="123.00" from="-179109642#2" to="-27570528#1" type="Pedestrian"/>
    <trip id="Ped124" depart="124.00" from="-39368524#1" to="473684642#0" type="Pedestrian"/>
    <trip id="Ped125" depart="125.00" from="162043157#1" to="-473691594" type="Pedestrian"/>
    <trip id="Ped126" depart="126.00" from="-340955664" to="39368522#2" type="Pedestrian"/>
    <trip id="Ped127" depart="127.00" from="-221893214#1" to="386278899" type="Pedestrian"/>
    <trip id="Ped128" depart="128.00" from="-28885040#1" to="-386278899" type="Pedestrian"/>
    <trip id="Ped129" depart="129.00" from="28788374" to="221893240" type="Pedestrian"/>
    <trip id="Ped130" depart="130.00" from="28788382#5" to="-8154723" type="Pedestrian"/>
    <trip id="Ped131" depart="131.00" from="4734476#0" to="221893219#2" type="Pedestrian"/>
    <trip id="Ped132" depart="132.00" from="473684643" to="549928635" type="Pedestrian"/>
    <trip id="Ped133" depart="133.00" from="-28885040#2" to="-28885040#4" type="Pedestrian"/>
    <trip id="Ped134" depart="134.00" from="4523224#2" to="-27840838#0" type="Pedestrian"/>
    <trip id="Ped135" depart="135.00" from="-28788382#2" to="-327764057#2" type="Pedestrian"/>
    <trip id="Ped136" depart="136.00" from="-27840836" to="28788384#0" type="Pedestrian"/>
    <trip id="Ped137" depart="137.00" from="-221893219#1" to="-473691594" type="Pedestrian"/>
    <trip id="Ped138" depart="138.00" from="249697087" to="27490680" type="Pedestrian"/>
    <trip id="Ped139" depart="139.00" from="229481708#3" to="28885040#2" type="Pedestrian"/>
    <trip id="Ped140" depart="140.00" from="487551846#0" to="-39368522#2" type="Pedestrian"/>
    <trip id="Ped141" depart="141.00" from="249697087" to="-27570528#4" type="Pedestrian"/>
    <trip id="Ped142" depart="142.00" from="39368522#0" to="249870999#1" type="Pedestrian"/>
    <trip id="Ped143" depart="143.00" from="28788368#0" to="-28885040#0" type="Pedestrian"/>
    <trip id="Ped144" depart="144.00" from="4902453" to="-386278899" type="Pedestrian"/>
    <trip id="Ped145" depart="145.00" from="4523224#1" to="-511815820" type="Pedestrian"/>
    <trip id="Ped146" depart="146.00" from="-4734472" to="319453543#2" type="Pedestrian"/>
    <trip id="Ped147" depart="147.00" from="27840840#1" to="-4902394#3" type="Pedestrian"/>
    <trip id="Ped148" depart="148.00" from="319447428" to="161392064#5" type="Pedestrian"/>
    <trip id="Ped149" depart="149.00" from="4734488" to="-221893214#1" type="Pedestrian"/>
    <trip id="Ped150" depart="150.00" from="28788366" to="4559074#5" type="Pedestrian"/>
    <trip id="Ped151" depart="151.00" from="4902436#0" to="221893215#2" type="Pedestrian"/>
    <trip id="Ped152" depart="152.00" from="4902433" to="-487551846#1" type="Pedestrian"/>
    <trip id="Ped153" depart="153.00" from="327764059#1" to="-179109642#2" type="Pedestrian"/>
    <trip id="Ped154" depart="154.00" from="340955664" to="4902440#0" type="Pedestrian"/>
    <trip id="Ped155" depart="155.00" from="39368524#0" to="-221893285#0" type="Pedestrian"/>
    <trip id="Ped156" depart="156.00" from="221893217#1" to="221893217#0" type="Pedestrian"/>
    <trip id="Ped157" depart="157.00" from="249697090#1" to="-4902436#0" type="Pedestrian"/>
    <trip id="Ped158" depart="158.00" from="221893214#1" to="-27840841#1" type="Pedestrian"/>
    <trip id="Ped159" depart="159.00" from="28885055#1" to="340955664" type="Pedestrian"/>
    <trip id="Ped160" depart="160.00" from="-27840840#2" to="-28885070#2" type="Pedestrian"/>
    <trip id="Ped161" depart="161.00" from="-39368524#2" to="-27467655#1" type="Pedestrian"/>
    <trip id="Ped162" depart="162.00" from="221893219#0" to="473684642#0" type="Pedestrian"/>
    <trip id="Ped163" depart="163.00" from="-179109642#2" to="-221893217#0" type="Pedestrian"/>
    <trip id="Ped164" depart="164.00" from="-8154723" to="161392071" type="Pedestrian"/>
    <trip id="Ped165" depart="165.00" from="-39368524#2" to="4902378#0" type="Pedestrian"/>
    <trip id="Ped166" depart="166.00" from="327956372" to="221893285#1" type="Pedestrian"/>
    <trip id="Ped167" depart="167.00" from="340955662" to="-249697087" type="Pedestrian"/>
    <trip id="Ped168" depart="168.00" from="221893217#0" to="28885070#1" type="Pedestrian"/>
    <trip id="Ped169" depart="169.00" from="323823408" to="247833369#0" type="Pedestrian"/>
    <trip id="Ped170" depart="170.00" from="249697087" to="386278913#0" type="Pedestrian"/>
    <trip id="Ped171" depart="171.00" from="-28788371#1" to="249697090#1" type="Pedestrian"/>
    <trip id="Ped172" depart="172.00" from="327764053" to="-39368524#0" type="Pedestrian"/>
    <trip id="Ped173" depart="173.00" from="221893219#0" to="27840841#3" type="Pedestrian"/>
    <trip id="Ped174" depart="174.00" from="4559074#3" to="-27467655#1" type="Pedestrian"/>
    <trip id="Ped175" depart="175.00" from="-162043157#0" to="340955664" type="Pedestrian"/>
    <trip id="Ped176" depart="176.00" from="-162043157#0" to="-511815819" type="Pedestrian"/>
    <trip id="Ped177" depart="177.00" from="27803780#2" to="473691590#1" type="Pedestrian"/>
    <trip id="Ped178" depart="178.00" from="-473691594" to="28885055#1" type="Pedestrian"/>
    <trip id="Ped179" depart="179.00" from="-39368524#1" to="8154723" type="Pedestrian"/>
    <trip id="Ped180" depart="180.00" from="-4902394#6" to="28788370#0" type="Pedestrian"/>
    <trip id="Ped181" depart="181.00" from="-340955664" to="549345534" type="Pedestrian"/>
    <trip id="Ped182" depart="182.00" from="473691609" to="-221893217#4" type="Pedestrian"/>
    <trip id="Ped183" depart="183.00" from="221893217#2" to="249697090#1" type="Pedestrian"/>
    <trip id="Ped184" depart="184.00" from="-221893217#2" to="249870999#1" type="Pedestrian"/>
    <trip id="Ped185" depart="185.00" from="473691590#1" to="221893240" type="Pedestrian"/>
    <trip id="Ped186" depart="186.00" from="221893214#1" to="39368524#1" type="Pedestrian"/>
    <trip id="Ped187" depart="187.00" from="4559381" to="27490679#1" type="Pedestrian"/>
    <trip id="Ped188" depart="188.00" from="340955664" to="161392064#1" type="Pedestrian"/>
    <trip id="Ped189" depart="189.00" from="-27840841#3" to="221893219#1" type="Pedestrian"/>
    <trip id="Ped190" depart="190.00" from="-473684642#0" to="27467656" type="Pedestrian"/>
    <trip id="Ped191" depart="191.00" from="161392064#5" to="327761947" type="Pedestrian"/>
    <trip id="Ped192" depart="192.00" from="-221893240" to="-473684642#0" type="Pedestrian"/>
    <trip id="Ped193" depart="193.00" from="247833370#1" to="161389762" type="Pedestrian"/>
    <trip id="Ped194" depart="194.00" from="-4902436#0" to="39368524#1" type="Pedestrian"/>
    <trip id="Ped195" depart="195.00" from="28788374" to="327764059#0" type="Pedestrian"/>
    <trip id="Ped196" depart="196.00" from="247833369#1" to="-4902433" type="Pedestrian"/>
    <trip id="Ped197" depart="197.00" from="-27467656" to="-473691609" type="Pedestrian"/>
    <trip id="Ped198" depart="198.00" from="-28885040#1" to="-28788366" type="Pedestrian"/>
    <trip id="Ped199" depart="199.00" from="162043156" to="490522132" type="Pedestrian"/>
    <trip id="Ped200" depart="200.00" from="4559074#3" to="28885055#1" type="Pedestrian"/>
    <trip id="Ped201" depart="201.00" from="161392067" to="-473691604#0" type="Pedestrian"/>
    <trip id="Ped202" depart="202.00" from="-341224415#1" to="161389762" type="Pedestrian"/>
    <trip id="Ped203" depart="203.00" from="-511815819" to="-27490679#0" type="Pedestrian"/>
    <trip id="Ped204" depart="204.00" from="511815820" to="28788368#0" type="Pedestrian"/>
    <trip id="Ped205" depart="205.00" from="-27840841#2" to="-28788382#5" type="Pedestrian"/>
    <trip id="Ped206" depart="206.00" from="249697087" to="27467655#3" type="Pedestrian"/>
    <trip id="Ped207" depart="207.00" from="28788368#0" to="249697090#3" type="Pedestrian"/>
    <trip id="Ped208" depart="208.00" from="549928635" to="-28788371#0" type="Pedestrian"/>
    <trip id="Ped209" depart="209.00" from="-28788382#2" to="-27467656" type="Pedestrian"/>
    <trip id="Ped210" depart="210.00" from="27490680" to="-162043156" type="Pedestrian"/>
    <trip id="Ped211" depart="211.00" from="549928635" to="221893237" type="Pedestrian"/>
    <trip id="Ped212" depart="212.00" from="221893217#0" to="-386278913#1" type="Pedestrian"/>
    <trip id="Ped213" depart="213.00" from="27490679#0" to="229481708#3" type="Pedestrian"/>
    <trip id="Ped214" depart="214.00" from="-473691594" to="247833370#0" type="Pedestrian"/>
    <trip id="Ped215" depart="215.00" from="249697087" to="28788384#1" type="Pedestrian"/>
    <trip id="Ped216" depart="216.00" from="4902453" to="39368522#2" type="Pedestrian"/>
    <trip id="Ped217" depart="217.00" from="221893219#0" to="28885070#1" type="Pedestrian"/>
    <trip id="Ped218" depart="218.00" from="27570528#0" to="229481708#2" type="Pedestrian"/>
    <trip id="Ped219" depart="219.00" from="-548651990#1" to="-162043157#0" type="Pedestrian"/>
    <trip id="Ped220" depart="220.00" from="-518474788" to="-548651990#1" type="Pedestrian"/>
    <trip id="Ped221" depart="221.00" from="28788374" to="-473691590#1" type="Pedestrian"/>
    <trip id="Ped222" depart="222.00" from="221893214#1" to="-27467656" type="Pedestrian"/>
    <trip id="Ped223" depart="223.00" from="4734487" to="473684642#0" type="Pedestrian"/>
    <trip id="Ped224" depart="224.00" from="-27467656" to="341224416" type="Pedestrian"/>
    <trip id="Ped225" depart="225.00" from="-341224416" to="-221893219#0" type="Pedestrian"/>
    <trip id="Ped226" depart="226.00" from="-28788365#2" to="-4902394#1" type="Pedestrian"/>
    <trip id="Ped227" depart="227.00" from="549928635" to="-28885040#1" type="Pedestrian"/>
    <trip id="Ped228" depart="228.00" from="-27840841#3" to="473691594" type="Pedestrian"/>
    <trip id="Ped229" depart="229.00" from="28788384#1" to="-221893219#1" type="Pedestrian"/>
    <trip id="Ped230" depart="230.00" from="221893225" to="-548651990#0" type="Pedestrian"/>
    <trip id="Ped231" depart="231.00" from="161392067" to="-221893214#1" type="Pedestrian"/>
    <trip id="Ped232" depart="232.00" from="162043157#1" to="386278897" type="Pedestrian"/>
    <trip id="Ped233" depart="233.00" from="-28885074#0" to="28885040#5" type="Pedestrian"/>
    <trip id="Ped234" depart="234.00" from="-27840841#1" to="549928635" type="Pedestrian"/>
    <trip id="Ped235" depart="235.00" from="-28885040#2" to="-221893215#0" type="Pedestrian"/>
    <trip id="Ped236" depart="236.00" from="221893214#1" to="15968349" type="Pedestrian"/>
    <trip id="Ped237" depart="237.00" from="-28885055#0" to="-221893267" type="Pedestrian"/>
    <trip id="Ped238" depart="238.00" from="-386278913#1" to="-221893214#1" type="Pedestrian"/>
    <trip id="Ped239" depart="239.00" from="-4902451#1" to="-28788382#3" type="Pedestrian"/>
    <trip id="Ped240" depart="240.00" from="4328546#2" to="27570528#0" type="Pedestrian"/>
    <trip id="Ped241" depart="241.00" from="27840841#0" to="-162043157#1" type="Pedestrian"/>
    <trip id="Ped242" depart="242.00" from="28788374" to="-4902433" type="Pedestrian"/>
    <trip id="Ped243" depart="243.00" from="-490522132" to="161392069#0" type="Pedestrian"/>
    <trip id="Ped244" depart="244.00" from="249697087" to="4902394#2" type="Pedestrian"/>
    <trip id="Ped245" depart="245.00" from="4559381" to="-221893214#1" type="Pedestrian"/>
    <trip id="Ped246" depart="246.00" from="327956372" to="-4902433" type="Pedestrian"/>
    <trip id="Ped247" depart="247.00" from="28885074#0" to="-28788374" type="Pedestrian"/>
    <trip id="Ped248" depart="248.00" from="28885073" to="15968349" type="Pedestrian"/>
    <trip id="Ped249" depart="249.00" from="-473691607" to="179109642#0" type="Pedestrian"/>
    <trip id="Ped250" depart="250.00" from="27490680" to="-28788374" type="Pedestrian"/>
    <trip id="Ped251" depart="251.00" from="4902440#0" to="4902440#0" type="Pedestrian"/>
    <trip id="Ped252" depart="252.00" from="-221893285#0" to="327764059#0" type="Pedestrian"/>
    <trip id="Ped253" depart="253.00" from="-28788368#0" to="327956373#0" type="Pedestrian"/>
    <trip id="Ped254" depart="254.00" from="344144147#0" to="473691594" type="Pedestrian"/>
    <trip id="Ped255" depart="255.00" from="-221893214#1" to="221893279" type="Pedestrian"/>
    <trip id="Ped256" depart="256.00" from="-386278913#0" to="323823408" type="Pedestrian"/>
    <trip id="Ped257" depart="257.00" from="-221893225" to="-4902453" type="Pedestrian"/>
    <trip id="Ped258" depart="258.00" from="-39368522#4" to="28885040#2" type="Pedestrian"/>
    <trip id="Ped259" depart="259.00" from="-221893219#2" to="247833371#0" type="Pedestrian"/>
    <trip id="Ped260" depart="260.00" from="-4902394#0" to="39368524#1" type="Pedestrian"/>
    <trip id="Ped261" depart="261.00" from="4902440#0" to="179109642#2" type="Pedestrian"/>
    <trip id="Ped262" depart="262.00" from="340955664" to="229481708#3" type="Pedestrian"/>
    <trip id="Ped263" depart="263.00" from="161389762" to="-27570528#3" type="Pedestrian"/>
    <trip id="Ped264" depart="264.00" from="161392064#5" to="-4902433" type="Pedestrian"/>
    <trip id="Ped265" depart="265.00" from="27840841#1" to="-473691590#1" type="Pedestrian"/>
    <trip id="Ped266" depart="266.00" from="-340955664" to="-4734472" type="Pedestrian"/>
    <trip id="Ped267" depart="267.00" from="249697090#1" to="179109642#0" type="Pedestrian"/>
    <trip id="Ped268" depart="268.00" from="4902453" to="-28788366" type="Pedestrian"/>
    <trip id="Ped269" depart="269.00" from="27570528#0" to="161389763" type="Pedestrian"/>
    <trip id="Ped270" depart="270.00" from="221893257" to="473691594" type="Pedestrian"/>
    <trip id="Ped271" depart="271.00" from="-27490680" to="-221893219#1" type="Pedestrian"/>
    <trip id="Ped272" depart="272.00" from="4523238#1" to="-221893217#0" type="Pedestrian"/>
    <trip id="Ped273" depart="273.00" from="27840840#0" to="-4902453" type="Pedestrian"/>
    <trip id="Ped274" depart="274.00" from="344144147#0" to="4902394#6" type="Pedestrian"/>
    <trip id="Ped275" depart="275.00" from="28788382#3" to="340955664" type="Pedestrian"/>
    <trip id="Ped276" depart="276.00" from="27840838#2" to="162043157#0" type="Pedestrian"/>
    <trip id="Ped277" depart="277.00" from="221893219#1" to="27840841#0" type="Pedestrian"/>
    <trip id="Ped278" depart="278.00" from="221893214#1" to="28788370#1" type="Pedestrian"/>
    <trip id="Ped279" depart="279.00" from="-28885073" to="249870999#1" type="Pedestrian"/>
    <trip id="Ped280" depart="280.00" from="27570528#3" to="249871000" type="Pedestrian"/>
    <trip id="Ped281" depart="281.00" from="221893214#1" to="27467655#1" type="Pedestrian"/>
    <trip id="Ped282" depart="282.00" from="386278913#1" to="-4902453" type="Pedestrian"/>
    <trip id="Ped283" depart="283.00" from="27840840#2" to="27570528#4" type="Pedestrian"/>
    <trip id="Ped284" depart="284.00" from="4902433" to="4523238#1" type="Pedestrian"/>
    <trip id="Ped285" depart="285.00" from="327764057#0" to="247833370#1" type="Pedestrian"/>
    <trip id="Ped286" depart="286.00" from="162043156" to="386278913#1" type="Pedestrian"/>
    <trip id="Ped287" depart="287.00" from="-28885040#3" to="221893214#1" type="Pedestrian"/>
    <trip id="Ped288" depart="288.00" from="249697087" to="27467655#2" type="Pedestrian"/>
    <trip id="Ped289" depart="289.00" from="4559381" to="-28885070#1" type="Pedestrian"/>
    <trip id="Ped290" depart="290.00" from="-27840838#0" to="249871000" type="Pedestrian"/>
    <trip id="Ped291" depart="291.00" from="27840841#0" to="-4902394#1" type="Pedestrian"/>
    <trip id="Ped292" depart="292.00" from="249697090#1" to="4328546#1" type="Pedestrian"/>
    <trip id="Ped293" depart="293.00" from="549928635" to="-28788371#0" type="Pedestrian"/>
    <trip id="Ped294" depart="294.00" from="4902440#0" to="386278897" type="Pedestrian"/>
    <trip id="Ped295" depart="295.00" from="161392064#4" to="386278913#0" type="Pedestrian"/>
    <trip id="Ped296" depart="296.00" from="-162043156" to="161392071" type="Pedestrian"/>
    <trip id="Ped297" depart="297.00" from="39368523" to="327761948#0" type="Pedestrian"/>
    <trip id="Ped298" depart="298.00" from="221893214#1" to="-179109642#2" type="Pedestrian"/>
    <trip id="Ped299" depart="299.00" from="249697090#0" to="28885040#5" type="Pedestrian"/>
    <trip id="Ped300" depart="300.00" from="27467655#2" to="-221893214#1" type="Pedestrian"/>
    <trip id="Ped301" depart="301.00" from="344144147#0" to="-28788366" type="Pedestrian"/>
    <trip id="Ped302" depart="302.00" from="-4902394#4" to="221893217#0" type="Pedestrian"/>
    <trip id="Ped303" depart="303.00" from="179109642#0" to="-473691609" type="Pedestrian"/>
    <trip id="Ped304" depart="304.00" from="-221893219#1" to="27803780#1" type="Pedestrian"/>
    <trip id="Ped305" depart="305.00" from="28885070#1" to="4902440#0" type="Pedestrian"/>
    <trip id="Ped306" depart="306.00" from="-179109642#0" to="249697090#0" type="Pedestrian"/>
    <trip id="Ped307" depart="307.00" from="-39368522#4" to="161389762" type="Pedestrian"/>
    <trip id="Ped308" depart="308.00" from="-28788382#4" to="-28788368#0" type="Pedestrian"/>
    <trip id="Ped309" depart="309.00" from="27490679#1" to="-28885074#0" type="Pedestrian"/>
    <trip id="Ped310" depart="310.00" from="4902453" to="229481708#2" type="Pedestrian"/>
    <trip id="Ped311" depart="311.00" from="-4902436#1" to="473691594" type="Pedestrian"/>
    <trip id="Ped312" depart="312.00" from="15968284" to="229481708#5" type="Pedestrian"/>
    <trip id="Ped313" depart="313.00" from="4902394#2" to="4559074#5" type="Pedestrian"/>
    <trip id="Ped314" depart="314.00" from="-162043157#0" to="-27840840#0" type="Pedestrian"/>
    <trip id="Ped315" depart="315.00" from="549928635" to="27840841#1" type="Pedestrian"/>
    <trip id="Ped316" depart="316.00" from="27840841#1" to="221893214#1" type="Pedestrian"/>
    <trip id="Ped317" depart="317.00" from="28788361#0" to="249697090#0" type="Pedestrian"/>
    <trip id="Ped318" depart="318.00" from="-4734472" to="-221893285#0" type="Pedestrian"/>
    <trip id="Ped319" depart="319.00" from="4734476#1" to="473684642#1" type="Pedestrian"/>