<?xml version="1.0"?>
<!-- generated on 2018-01-01 11:39:49.722821 by $Id: randomTrips.py 23999 2017-04-21 09:04:47Z behrisch $
  options: <doubleminus>fringe-factor 3 <doubleminus>prefix mot <doubleminus>vehicle-class motorcycle -n /media/jefferson/Dados/workspace/GoodsTracker/vanet/sp/place/osm.net.xml -r /media/jefferson/Dados/workspace/GoodsTracker/vanet/sp/place/osm.motorcycle.rou.xml -p 0.11 -e 3600 -o /media/jefferson/Dados/workspace/GoodsTracker/vanet/sp/place/osm.motorcycle.trips.xml
-->
<routes xmlns:xsi="http://www.w3.org/2001/XMLSchema-instance" xsi:noNamespaceSchemaLocation="http://sumo.dlr.de/xsd/routes_file.xsd">
    <vType id="motorcycle" vClass="motorcycle" />
    <trip id="mot0" depart="0.00" from="518474575" to="28788361#2" type="motorcycle"/>
    <trip id="mot1" depart="0.11" from="-386278913#1" to="319453543#2" type="motorcycle"/>
    <trip id="mot2" depart="0.22" from="548651990#0" to="-221893225" type="motorcycle"/>
    <trip id="mot3" depart="0.33" from="-27840838#2" to="-221893217#4" type="motorcycle"/>
    <trip id="mot4" depart="0.44" from="-27840840#2" to="161392066" type="motorcycle"/>
    <trip id="mot5" depart="0.55" from="-28788361#2" to="549928646#0" type="motorcycle"/>
    <trip id="mot6" depart="0.66" from="340955661" to="27840840#4" type="motorcycle"/>
    <trip id="mot7" depart="0.77" from="27803780#2" to="28885040#0" type="motorcycle"/>
    <trip id="mot8" depart="0.88" from="549928646#0" to="-473684643" type="motorcycle"/>
    <trip id="mot9" depart="0.99" from="27803780#1" to="27467655#3" type="motorcycle"/>
    <trip id="mot10" depart="1.10" from="161389764" to="-27490679#0" type="motorcycle"/>
    <trip id="mot11" depart="1.21" from="39368524#1" to="249697090#4" type="motorcycle"/>
    <trip id="mot12" depart="1.32" from="28885073" to="-221893257" type="motorcycle"/>
    <trip id="mot13" depart="1.43" from="179109642#1" to="473691609" type="motorcycle"/>
    <trip id="mot14" depart="1.54" from="518474575" to="4902436#1" type="motorcycle"/>
    <trip id="mot15" depart="1.65" from="-4902436#1" to="-27490680" type="motorcycle"/>
    <trip id="mot16" depart="1.76" from="4902453" to="27840840#0" type="motorcycle"/>
    <trip id="mot17" depart="1.87" from="221893257" to="27840840#4" type="motorcycle"/>
    <trip id="mot18" depart="1.98" from="4734475#6" to="4902440#0" type="motorcycle"/>
    <trip id="mot19" depart="2.09" from="27570528#1" to="549928642#1" type="motorcycle"/>
    <trip id="mot20" depart="2.20" from="-221893214#1" to="-39368522#0" type="motorcycle"/>
    <trip id="mot21" depart="2.31" from="221893219#1" to="-221893240" type="motorcycle"/>
    <trip id="mot22" depart="2.42" from="221893267" to="-28788365#1" type="motorcycle"/>
    <trip id="mot23" depart="2.53" from="4523238#0" to="341224415#0" type="motorcycle"/>
    <trip id="mot24" depart="2.64" from="4559381" to="4734475#0" type="motorcycle"/>
    <trip id="mot25" depart="2.75" from="4902378#1" to="27570527#3" type="motorcycle"/>
    <trip id="mot26" depart="2.86" from="-39368524#2" to="179109642#0" type="motorcycle"/>
    <trip id="mot27" depart="2.97" from="-473691604#0" to="161392066" type="motorcycle"/>
    <trip id="mot28" depart="3.08" from="473684642#1" to="-327764057#0" type="motorcycle"/>
    <trip id="mot29" depart="3.19" from="-27840838#2" to="-341224415#1" type="motorcycle"/>
    <trip id="mot30" depart="3.30" from="28788370#0" to="249697090#2" type="motorcycle"/>
    <trip id="mot31" depart="3.41" from="4559074#6" to="-548651990#0" type="motorcycle"/>
    <trip id="mot32" depart="3.52" from="340955662" to="-4902433" type="motorcycle"/>
    <trip id="mot33" depart="3.63" from="-4902394#4" to="27840841#3" type="motorcycle"/>
    <trip id="mot34" depart="3.74" from="28788361#2" to="-39368524#2" type="motorcycle"/>
    <trip id="mot35" depart="3.85" from="4328546#0" to="39368524#0" type="motorcycle"/>
    <trip id="mot36" depart="3.96" from="245546865" to="327764057#1" type="motorcycle"/>
    <trip id="mot37" depart="4.07" from="4902453" to="-4902433" type="motorcycle"/>
    <trip id="mot38" depart="4.18" from="319453545#1" to="341224415#0" type="motorcycle"/>
    <trip id="mot39" depart="4.29" from="-549928648#0" to="161392067" type="motorcycle"/>
    <trip id="mot40" depart="4.40" from="28788365#1" to="28885040#0" type="motorcycle"/>
    <trip id="mot41" depart="4.51" from="344144147#1" to="39368522#1" type="motorcycle"/>
    <trip id="mot42" depart="4.62" from="27840840#1" to="511815818" type="motorcycle"/>
    <trip id="mot43" depart="4.73" from="344144147#0" to="511815819" type="motorcycle"/>
    <trip id="mot44" depart="4.84" from="-27570528#4" to="487551846#0" type="motorcycle"/>
    <trip id="mot45" depart="4.95" from="327764055" to="-27467655#0" type="motorcycle"/>
    <trip id="mot46" depart="5.06" from="549917967" to="490522132" type="motorcycle"/>
    <trip id="mot47" depart="5.17" from="-28788365#2" to="221893237" type="motorcycle"/>
    <trip id="mot48" depart="5.28" from="-28788382#3" to="487551846#0" type="motorcycle"/>
    <trip id="mot49" depart="5.39" from="-473691604#1" to="4902440#0" type="motorcycle"/>
    <trip id="mot50" depart="5.50" from="27803780#2" to="549928648#1" type="motorcycle"/>
    <trip id="mot51" depart="5.61" from="-27840838#1" to="-28885040#0" type="motorcycle"/>
    <trip id="mot52" depart="5.72" from="27467655#1" to="28885040#4" type="motorcycle"/>
    <trip id="mot53" depart="5.83" from="327761947" to="247833369#0" type="motorcycle"/>
    <trip id="mot54" depart="5.94" from="327761948#0" to="-28788382#0" type="motorcycle"/>
    <trip id="mot55" depart="6.05" from="221893214#0" to="221893225" type="motorcycle"/>
    <trip id="mot56" depart="6.16" from="28885040#2" to="-27840838#0" type="motorcycle"/>
    <trip id="mot57" depart="6.27" from="27570528#2" to="-487551846#1" type="motorcycle"/>
    <trip id="mot58" depart="6.38" from="4559381" to="-28788370#1" type="motorcycle"/>
    <trip id="mot59" depart="6.49" from="-4902394#2" to="4902416#2" type="motorcycle"/>
    <trip id="mot60" depart="6.60" from="4734475#6" to="-473684643" type="motorcycle"/>
    <trip id="mot61" depart="6.71" from="27803780#2" to="27840840#4" type="motorcycle"/>
    <trip id="mot62" depart="6.82" from="-341224415#0" to="327956373#0" type="motorcycle"/>
    <trip id="mot63" depart="6.93" from="4559074#6" to="4902394#6" type="motorcycle"/>
    <trip id="mot64" depart="7.04" from="-28885073" to="28885074#0" type="motorcycle"/>
    <trip id="mot65" depart="7.15" from="319453543#0" to="-27490679#0" type="motorcycle"/>
    <trip id="mot66" depart="7.26" from="4559074#1" to="27570528#1" type="motorcycle"/>
    <trip id="mot67" depart="7.37" from="4734475#0" to="-27803780#1" type="motorcycle"/>
    <trip id="mot68" depart="7.48" from="-386278897" to="-548651990#0" type="motorcycle"/>
    <trip id="mot69" depart="7.59" from="-28885074#0" to="473691601#0" type="motorcycle"/>
    <trip id="mot70" depart="7.70" from="-487551846#2" to="-549928648#2" type="motorcycle"/>
    <trip id="mot71" depart="7.81" from="-27490679#1" to="-179109642#0" type="motorcycle"/>
    <trip id="mot72" depart="7.92" from="-487551846#2" to="-4902451#0" type="motorcycle"/>
    <trip id="mot73" depart="8.03" from="-162043157#1" to="-473691590#1" type="motorcycle"/>
    <trip id="mot74" depart="8.14" from="27803780#0" to="327956374" type="motorcycle"/>
    <trip id="mot75" depart="8.25" from="28788370#0" to="327764059#1" type="motorcycle"/>
    <trip id="mot76" depart="8.36" from="28788382#1" to="511815819" type="motorcycle"/>
    <trip id="mot77" depart="8.47" from="4328546#0" to="-39368522#5" type="motorcycle"/>
    <trip id="mot78" depart="8.58" from="-27840841#3" to="221893217#2" type="motorcycle"/>
    <trip id="mot79" depart="8.69" from="-27840836" to="-327764057#1" type="motorcycle"/>
    <trip id="mot80" depart="8.80" from="-4902451#0" to="327956372" type="motorcycle"/>
    <trip id="mot81" depart="8.91" from="249697087" to="27803780#1" type="motorcycle"/>
    <trip id="mot82" depart="9.02" from="28788361#0" to="-39368522#5" type="motorcycle"/>
    <trip id="mot83" depart="9.13" from="-28788365#2" to="4902474" type="motorcycle"/>
    <trip id="mot84" depart="9.24" from="-27840840#0" to="27803780#2" type="motorcycle"/>
    <trip id="mot85" depart="9.35" from="4523238#0" to="4902374#0" type="motorcycle"/>
    <trip id="mot86" depart="9.46" from="4902453" to="27840840#4" type="motorcycle"/>
    <trip id="mot87" depart="9.57" from="27840841#2" to="28788382#2" type="motorcycle"/>
    <trip id="mot88" depart="9.68" from="-8154723" to="4734475#6" type="motorcycle"/>
    <trip id="mot89" depart="9.79" from="4902374#1" to="221893219#2" type="motorcycle"/>
    <trip id="mot90" depart="9.90" from="327956374" to="-28885070#0" type="motorcycle"/>
    <trip id="mot91" depart="10.01" from="221893237" to="-179109642#1" type="motorcycle"/>
    <trip id="mot92" depart="10.12" from="27467655#0" to="39368524#2" type="motorcycle"/>
    <trip id="mot93" depart="10.23" from="28788368#0" to="-548651990#0" type="motorcycle"/>
    <trip id="mot94" depart="10.34" from="162043157#1" to="327761948#0" type="motorcycle"/>
    <trip id="mot95" depart="10.45" from="-473684642#0" to="179109642#0" type="motorcycle"/>
    <trip id="mot96" depart="10.56" from="327754983" to="28788365#1" type="motorcycle"/>
    <trip id="mot97" depart="10.67" from="-518474575" to="-28788368#0" type="motorcycle"/>
    <trip id="mot98" depart="10.78" from="27840836" to="-4902451#0" type="motorcycle"/>
    <trip id="mot99" depart="10.89" from="-473691609" to="-28885055#0" type="motorcycle"/>
    <trip id="mot100" depart="11.00" from="-27467655#2" to="221893217#1" type="motorcycle"/>
    <trip id="mot101" depart="11.11" from="27467655#0" to="247833371#1" type="motorcycle"/>
    <trip id="mot102" depart="11.22" from="161392070" to="-28885070#0" type="motorcycle"/>
    <trip id="mot103" depart="11.33" from="249697087" to="473691601#0" type="motorcycle"/>
    <trip id="mot104" depart="11.44" from="27570527#2" to="-27467655#3" type="motorcycle"/>
    <trip id="mot105" depart="11.55" from="4902374#0" to="386278897" type="motorcycle"/>
    <trip id="mot106" depart="11.66" from="27840840#3" to="-27570528#4" type="motorcycle"/>
    <trip id="mot107" depart="11.77" from="229481708#0" to="487551846#2" type="motorcycle"/>
    <trip id="mot108" depart="11.88" from="27490679#0" to="473691604#0" type="motorcycle"/>
    <trip id="mot109" depart="11.99" from="-28885040#5" to="4559074#0" type="motorcycle"/>
    <trip id="mot110" depart="12.10" from="-28788384#1" to="221893217#1" type="motorcycle"/>
    <trip id="mot111" depart="12.21" from="-39368524#2" to="473691589" type="motorcycle"/>
    <trip id="mot112" depart="12.32" from="548651990#0" to="161392069#1" type="motorcycle"/>
    <trip id="mot113" depart="12.43" from="4734475#0" to="473691604#2" type="motorcycle"/>
    <trip id="mot114" depart="12.54" from="327956372" to="4902394#6" type="motorcycle"/>
    <trip id="mot115" depart="12.65" from="-27840840#2" to="340955664" type="motorcycle"/>
    <trip id="mot116" depart="12.76" from="-221893219#2" to="-221893237" type="motorcycle"/>
    <trip id="mot117" depart="12.87" from="4902394#4" to="247833371#1" type="motorcycle"/>
    <trip id="mot118" depart="12.98" from="340955661" to="4902436#1" type="motorcycle"/>
    <trip id="mot119" depart="13.09" from="4902433" to="-27570527#0" type="motorcycle"/>
    <trip id="mot120" depart="13.20" from="4902394#1" to="221893217#4" type="motorcycle"/>
    <trip id="mot121" depart="13.31" from="-28788365#2" to="549928642#1" type="motorcycle"/>
    <trip id="mot122" depart="13.42" from="247833369#1" to="4902374#1" type="motorcycle"/>
    <trip id="mot123" depart="13.53" from="-27840841#3" to="-28885070#1" type="motorcycle"/>
    <trip id="mot124" depart="13.64" from="-28788382#4" to="4559074#6" type="motorcycle"/>
    <trip id="mot125" depart="13.75" from="344144147#0" to="-4902394#1" type="motorcycle"/>
    <trip id="mot126" depart="13.86" from="-27570528#3" to="-28788384#0" type="motorcycle"/>
    <trip id="mot127" depart="13.97" from="27467655#0" to="-179109642#0" type="motorcycle"/>
    <trip id="mot128" depart="14.08" from="39368522#5" to="161392064#5" type="motorcycle"/>
    <trip id="mot129" depart="14.19" from="-4902394#4" to="28885040#0" type="motorcycle"/>
    <trip id="mot130" depart="14.30" from="221893285#1" to="221893215#0" type="motorcycle"/>
    <trip id="mot131" depart="14.41" from="249870999#0" to="-221893219#1" type="motorcycle"/>
    <trip id="mot132" depart="14.52" from="473684642#1" to="221893219#2" type="motorcycle"/>
    <trip id="mot133" depart="14.63" from="-39368522#4" to="549928648#2" type="motorcycle"/>
    <trip id="mot134" depart="14.74" from="401773369" to="161392070" type="motorcycle"/>
    <trip id="mot135" depart="14.85" from="4523224#1" to="-221893217#5" type="motorcycle"/>
    <trip id="mot136" depart="14.96" from="249697087" to="-4902394#5" type="motorcycle"/>
    <trip id="mot137" depart="15.07" from="-28788370#1" to="327764059#0" type="motorcycle"/>
    <trip id="mot138" depart="15.18" from="-27840840#1" to="-221893257" type="motorcycle"/>
    <trip id="mot139" depart="15.29" from="-386278897" to="4734474" type="motorcycle"/>
    <trip id="mot140" depart="15.40" from="161392064#3" to="490522132" type="motorcycle"/>
    <trip id="mot141" depart="15.51" from="-27840840#2" to="28788382#2" type="motorcycle"/>
    <trip id="mot142" depart="15.62" from="-28885040#0" to="249697090#0" type="motorcycle"/>
    <trip id="mot143" depart="15.73" from="-27570528#0" to="-28885055#1" type="motorcycle"/>
    <trip id="mot144" depart="15.84" from="319453543#0" to="161389756#1" type="motorcycle"/>
    <trip id="mot145" depart="15.95" from="28885070#0" to="27840836" type="motorcycle"/>
    <trip id="mot146" depart="16.06" from="28788374" to="-221893237" type="motorcycle"/>
    <trip id="mot147" depart="16.17" from="-27840840#4" to="4559074#5" type="motorcycle"/>
    <trip id="mot148" depart="16.28" from="27467655#3" to="27570528#3" type="motorcycle"/>
    <trip id="mot149" depart="16.39" from="-340955667" to="-28885040#5" type="motorcycle"/>
    <trip id="mot150" depart="16.50" from="28788361#0" to="-28788371#0" type="motorcycle"/>
    <trip id="mot151" depart="16.61" from="161389762" to="-386278913#1" type="motorcycle"/>
    <trip id="mot152" depart="16.72" from="161392065" to="-27467655#3" type="motorcycle"/>
    <trip id="mot153" depart="16.83" from="-386278897" to="28788365#1" type="motorcycle"/>
    <trip id="mot154" depart="16.94" from="327764057#1" to="4902436#0" type="motorcycle"/>
    <trip id="mot155" depart="17.05" from="473691590#0" to="4328546#2" type="motorcycle"/>
    <trip id="mot156" depart="17.16" from="-327764057#1" to="-179109642#0" type="motorcycle"/>
    <trip id="mot157" depart="17.27" from="-473684642#0" to="4902436#1" type="motorcycle"/>
    <trip id="mot158" depart="17.38" from="-27840840#1" to="4902394#1" type="motorcycle"/>
    <trip id="mot159" depart="17.49" from="-28788382#2" to="327764057#2" type="motorcycle"/>
    <trip id="mot160" depart="17.60" from="319453545#1" to="-39368522#4" type="motorcycle"/>
    <trip id="mot161" depart="17.71" from="-473691604#2" to="161392059#2" type="motorcycle"/>
    <trip id="mot162" depart="17.82" from="229481708#1" to="327761948#0" type="motorcycle"/>
    <trip id="mot163" depart="17.93" from="-473684642#1" to="341224412" type="motorcycle"/>
    <trip id="mot164" depart="18.04" from="473684643" to="340955662" type="motorcycle"/>
    <trip id="mot165" depart="18.15" from="-511815820" to="-27840840#0" type="motorcycle"/>
    <trip id="mot166" depart="18.26" from="39368522#0" to="549928642#1" type="motorcycle"/>
    <trip id="mot167" depart="18.37" from="-518474788" to="27840838#0" type="motorcycle"/>
    <trip id="mot168" depart="18.48" from="549928635" to="221893217#1" type="motorcycle"/>
    <trip id="mot169" depart="18.59" from="-221893217#1" to="-473691604#0" type="motorcycle"/>
    <trip id="mot170" depart="18.70" from="28788361#0" to="4734472" type="motorcycle"/>
    <trip id="mot171" depart="18.81" from="27570527#2" to="4902378#0" type="motorcycle"/>
    <trip id="mot172" depart="18.92" from="161392064#1" to="-27840840#3" type="motorcycle"/>
    <trip id="mot173" depart="19.03" from="4902453" to="27490679#1" type="motorcycle"/>
    <trip id="mot174" depart="19.14" from="327764057#0" to="27570527#1" type="motorcycle"/>
    <trip id="mot175" depart="19.25" from="39368522#1" to="28885055#1" type="motorcycle"/>
    <trip id="mot176" depart="19.36" from="4734475#3" to="-179109642#2" type="motorcycle"/>
    <trip id="mot177" depart="19.47" from="340955664" to="490522132" type="motorcycle"/>
    <trip id="mot178" depart="19.58" from="247833369#1" to="-28788361#1" type="motorcycle"/>
    <trip id="mot179" depart="19.69" from="28788361#0" to="245546865" type="motorcycle"/>
    <trip id="mot180" depart="19.80" from="28885070#0" to="4902394#6" type="motorcycle"/>
    <trip id="mot181" depart="19.91" from="249697090#1" to="161392070" type="motorcycle"/>
    <trip id="mot182" depart="20.02" from="4734472" to="162043157#1" type="motorcycle"/>
    <trip id="mot183" depart="20.13" from="27840840#0" to="4902436#0" type="motorcycle"/>
    <trip id="mot184" depart="20.24" from="327956373#1" to="-28788370#0" type="motorcycle"/>
    <trip id="mot185" depart="20.35" from="39368524#2" to="-549928646#0" type="motorcycle"/>
    <trip id="mot186" depart="20.46" from="27467655#2" to="-473691604#1" type="motorcycle"/>
    <trip id="mot187" depart="20.57" from="229481708#0" to="4902374#2" type="motorcycle"/>
    <trip id="mot188" depart="20.68" from="-27803780#0" to="475330829" type="motorcycle"/>
    <trip id="mot189" depart="20.79" from="179109642#2" to="247833370#0" type="motorcycle"/>
    <trip id="mot190" depart="20.90" from="-27467655#3" to="161392068" type="motorcycle"/>
    <trip id="mot191" depart="21.01" from="221893267" to="27570528#4" type="motorcycle"/>
    <trip id="mot192" depart="21.12" from="473691590#0" to="473691594" type="motorcycle"/>
    <trip id="mot193" depart="21.23" from="28788365#1" to="161392066" type="motorcycle"/>
    <trip id="mot194" depart="21.34" from="518474575" to="-4902394#2" type="motorcycle"/>
    <trip id="mot195" depart="21.45" from="327956372" to="386278897" type="motorcycle"/>
    <trip id="mot196" depart="21.56" from="-221893219#2" to="4902394#3" type="motorcycle"/>
    <trip id="mot197" depart="21.67" from="27570528#4" to="27840841#3" type="motorcycle"/>
    <trip id="mot198" depart="21.78" from="323823408" to="249870999#1" type="motorcycle"/>
    <trip id="mot199" depart="21.89" from="4902378#0" to="-39368524#2" type="motorcycle"/>
    <trip id="mot200" depart="22.00" from="28788366" to="-27803780#1" type="motorcycle"/>
    <trip id="mot201" depart="22.11" from="-473691601#1" to="-518474575" type="motorcycle"/>
    <trip id="mot202" depart="22.22" from="4902453" to="-4902453" type="motorcycle"/>
    <trip id="mot203" depart="22.33" from="4559007" to="179109642#2" type="motorcycle"/>
    <trip id="mot204" depart="22.44" from="-4902394#5" to="341224412" type="motorcycle"/>
    <trip id="mot205" depart="22.55" from="-386278913#1" to="221893285#1" type="motorcycle"/>
    <trip id="mot206" depart="22.66" from="380438949#0" to="-27840836" type="motorcycle"/>
    <trip id="mot207" depart="22.77" from="221893214#0" to="27570528#1" type="motorcycle"/>
    <trip id="mot208" depart="22.88" from="4734475#5" to="-4902394#4" type="motorcycle"/>
    <trip id="mot209" depart="22.99" from="-162043156" to="28885040#1" type="motorcycle"/>
    <trip id="mot210" depart="23.10" from="-27840841#3" to="-327764057#1" type="motorcycle"/>
    <trip id="mot211" depart="23.21" from="4902394#2" to="28788365#1" type="motorcycle"/>
    <trip id="mot212" depart="23.32" from="247833370#0" to="249697090#4" type="motorcycle"/>
    <trip id="mot213" depart="23.43" from="-511815818" to="511815818" type="motorcycle"/>
    <trip id="mot214" depart="23.54" from="-386278913#2" to="-473684642#0" type="motorcycle"/>
    <trip id="mot215" depart="23.65" from="-28885055#0" to="549928642#1" type="motorcycle"/>
    <trip id="mot216" depart="23.76" from="4523224#1" to="-28788382#0" type="motorcycle"/>
    <trip id="mot217" depart="23.87" from="549928635" to="249870999#1" type="motorcycle"/>
    <trip id="mot218" depart="23.98" from="221893214#0" to="27840840#4" type="motorcycle"/>
    <trip id="mot219" depart="24.09" from="473691594" to="27570527#1" type="motorcycle"/>
    <trip id="mot220" depart="24.20" from="-340955664" to="-28788382#4" type="motorcycle"/>
    <trip id="mot221" depart="24.31" from="-511815820" to="4902394#0" type="motorcycle"/>
    <trip id="mot222" depart="24.42" from="28788374" to="518474575" type="motorcycle"/>
    <trip id="mot223" depart="24.53" from="4902474" to="-473691590#1" type="motorcycle"/>
    <trip id="mot224" depart="24.64" from="341224415#1" to="549928648#3" type="motorcycle"/>
    <trip id="mot225" depart="24.75" from="-221893215#1" to="4902394#2" type="motorcycle"/>
    <trip id="mot226" depart="24.86" from="-221893237" to="161389756#1" type="motorcycle"/>
    <trip id="mot227" depart="24.97" from="-341224412" to="-28788374" type="motorcycle"/>
    <trip id="mot228" depart="25.08" from="39368524#1" to="27840841#3" type="motorcycle"/>
    <trip id="mot229" depart="25.19" from="319453543#0" to="161392067" type="motorcycle"/>
    <trip id="mot230" depart="25.30" from="327761947" to="-28885055#0" type="motorcycle"/>
    <trip id="mot231" depart="25.41" from="-341224415#0" to="161389764" type="motorcycle"/>
    <trip id="mot232" depart="25.52" from="-27803780#2" to="96097834" type="motorcycle"/>
    <trip id="mot233" depart="25.63" from="327956373#1" to="15968349" type="motorcycle"/>
    <trip id="mot234" depart="25.74" from="-27840840#3" to="327761948#0" type="motorcycle"/>
    <trip id="mot235" depart="25.85" from="-221893219#2" to="4902474" type="motorcycle"/>
    <trip id="mot236" depart="25.96" from="380438949#0" to="487551846#0" type="motorcycle"/>
    <trip id="mot237" depart="26.07" from="161389762" to="-27467656" type="motorcycle"/>
    <trip id="mot238" depart="26.18" from="-27840838#0" to="4734475#5" type="motorcycle"/>
    <trip id="mot239" depart="26.29" from="249697087" to="475330829" type="motorcycle"/>
    <trip id="mot240" depart="26.40" from="27803780#2" to="-487551846#0" type="motorcycle"/>
    <trip id="mot241" depart="26.51" from="548651990#0" to="27840841#1" type="motorcycle"/>
    <trip id="mot242" depart="26.62" from="161392067" to="-4902451#0" type="motorcycle"/>
    <trip id="mot243" depart="26.73" from="4523238#0" to="-340955667" type="motorcycle"/>
    <trip id="mot244" depart="26.84" from="-39368524#2" to="249870999#1" type="motorcycle"/>
    <trip id="mot245" depart="26.95" from="548651990#0" to="548651990#1" type="motorcycle"/>
    <trip id="mot246" depart="27.06" from="221893217#2" to="-28885073" type="motorcycle"/>
    <trip id="mot247" depart="27.17" from="-27840840#4" to="-28788361#1" type="motorcycle"/>
    <trip id="mot248" depart="27.28" from="-4902451#0" to="-27570528#1" type="motorcycle"/>
    <trip id="mot249" depart="27.39" from="28788382#2" to="4902440#0" type="motorcycle"/>
    <trip id="mot250" depart="27.50" from="549928642#0" to="27570527#2" type="motorcycle"/>
    <trip id="mot251" depart="27.61" from="27467655#0" to="28788382#1" type="motorcycle"/>
    <trip id="mot252" depart="27.72" from="473691607" to="-27840836" type="motorcycle"/>
    <trip id="mot253" depart="27.83" from="518474575" to="161392064#3" type="motorcycle"/>
    <trip id="mot254" depart="27.94" from="-221893214#1" to="27840838#1" type="motorcycle"/>
    <trip id="mot255" depart="28.05" from="-473691604#2" to="27840840#1" type="motorcycle"/>
    <trip id="mot256" depart="28.16" from="327764053" to="15968284" type="motorcycle"/>
    <trip id="mot257" depart="28.27" from="28788382#1" to="28885070#2" type="motorcycle"/>
    <trip id="mot258" depart="28.38" from="549928648#0" to="-27840836" type="motorcycle"/>
    <trip id="mot259" depart="28.49" from="-386278897" to="473691589" type="motorcycle"/>
    <trip id="mot260" depart="28.60" from="-490522132" to="386278913#0" type="motorcycle"/>
    <trip id="mot261" depart="28.71" from="27840838#2" to="-221893285#1" type="motorcycle"/>
    <trip id="mot262" depart="28.82" from="-27840840#2" to="4902394#6" type="motorcycle"/>
    <trip id="mot263" depart="28.93" from="-221893285#1" to="27803780#2" type="motorcycle"/>
    <trip id="mot264" depart="29.04" from="518474575" to="4902394#6" type="motorcycle"/>
    <trip id="mot265" depart="29.15" from="249697087" to="-27840838#0" type="motorcycle"/>
    <trip id="mot266" depart="29.26" from="39368522#5" to="327764059#1" type="motorcycle"/>
    <trip id="mot267" depart="29.37" from="549345534" to="-221893235" type="motorcycle"/>
    <trip id="mot268" depart="29.48" from="327956372" to="-27840840#2" type="motorcycle"/>
    <trip id="mot269" depart="29.59" from="-4902451#0" to="4559074#0" type="motorcycle"/>
    <trip id="mot270" depart="29.70" from="39368524#1" to="4902374#0" type="motorcycle"/>
    <trip id="mot271" depart="29.81" from="179109642#2" to="-221893217#2" type="motorcycle"/>
    <trip id="mot272" depart="29.92" from="548651990#1" to="4734475#7" type="motorcycle"/>
    <trip id="mot273" depart="30.03" from="327956373#0" to="27840840#4" type="motorcycle"/>
    <trip id="mot274" depart="30.14" from="229481708#1" to="-28788382#1" type="motorcycle"/>
    <trip id="mot275" depart="30.25" from="28788366" to="221893219#1" type="motorcycle"/>
    <trip id="mot276" depart="30.36" from="380438949#1" to="179109642#2" type="motorcycle"/>
    <trip id="mot277" depart="30.47" from="-28885055#0" to="549345534" type="motorcycle"/>
    <trip id="mot278" depart="30.58" from="511815819" to="27840841#0" type="motorcycle"/>
    <trip id="mot279" depart="30.69" from="-162043157#0" to="-548651990#0" type="motorcycle"/>
    <trip id="mot280" depart="30.80" from="473691590#0" to="4902451#1" type="motorcycle"/>
    <trip id="mot281" depart="30.91" from="386278899" to="27840840#1" type="motorcycle"/>
    <trip id="mot282" depart="31.02" from="327764055" to="28788384#1" type="motorcycle"/>
    <trip id="mot283" depart="31.13" from="487551846#1" to="-341224415#0" type="motorcycle"/>
    <trip id="mot284" depart="31.24" from="28788361#0" to="15968349" type="motorcycle"/>
    <trip id="mot285" depart="31.35" from="344144147#1" to="386278897" type="motorcycle"/>
    <trip id="mot286" depart="31.46" from="-511815820" to="96097794" type="motorcycle"/>
    <trip id="mot287" depart="31.57" from="380438949#0" to="161392064#0" type="motorcycle"/>
    <trip id="mot288" depart="31.68" from="247833368" to="229481708#5" type="motorcycle"/>
    <trip id="mot289" depart="31.79" from="-386278897" to="549345534" type="motorcycle"/>
    <trip id="mot290" depart="31.90" from="-518474788" to="28788382#3" type="motorcycle"/>
    <trip id="mot291" depart="32.01" from="-473691589" to="4902394#3" type="motorcycle"/>
    <trip id="mot292" depart="32.12" from="-4902394#6" to="-4902394#1" type="motorcycle"/>
    <trip id="mot293" depart="32.23" from="27803780#2" to="28788371#1" type="motorcycle"/>
    <trip id="mot294" depart="32.34" from="-473691604#2" to="39368524#2" type="motorcycle"/>
    <trip id="mot295" depart="32.45" from="-27840838#0" to="161392069#1" type="motorcycle"/>
    <trip id="mot296" depart="32.56" from="-490522132" to="229481708#0" type="motorcycle"/>
    <trip id="mot297" depart="32.67" from="-511815818" to="162043157#0" type="motorcycle"/>
    <trip id="mot298" depart="32.78" from="161389765" to="518474575" type="motorcycle"/>
    <trip id="mot299" depart="32.89" from="-28788371#0" to="-4902394#0" type="motorcycle"/>
    <trip id="mot300" depart="33.00" from="-28788382#2" to="475330829" type="motorcycle"/>
    <trip id="mot301" depart="33.11" from="-28788382#4" to="319453543#0" type="motorcycle"/>
    <trip id="mot302" depart="33.22" from="-179109642#2" to="487551846#0" type="motorcycle"/>
    <trip id="mot303" depart="33.33" from="-27570527#1" to="28885055#0" type="motorcycle"/>
    <trip id="mot304" depart="33.44" from="4902378#1" to="161392059#1" type="motorcycle"/>
    <trip id="mot305" depart="33.55" from="39368522#1" to="27840840#4" type="motorcycle"/>
    <trip id="mot306" depart="33.66" from="-221893215#2" to="490522132" type="motorcycle"/>
    <trip id="mot307" depart="33.77" from="28885073" to="-386278913#1" type="motorcycle"/>
    <trip id="mot308" depart="33.88" from="-221893225" to="-28788365#1" type="motorcycle"/>
    <trip id="mot309" depart="33.99" from="27570527#0" to="-473691594" type="motorcycle"/>
    <trip id="mot310" depart="34.10" from="-39368522#1" to="15968349" type="motorcycle"/>
    <trip id="mot311" depart="34.21" from="27840840#3" to="221893240" type="motorcycle"/>
    <trip id="mot312" depart="34.32" from="327764055" to="179109642#2" type="motorcycle"/>
    <trip id="mot313" depart="34.43" from="27840838#1" to="327764059#0" type="motorcycle"/>
    <trip id="mot314" depart="34.54" from="-39368524#2" to="549928642#1" type="motorcycle"/>
    <trip id="mot315" depart="34.65" from="4523238#0" to="-4902433" type="motorcycle"/>
    <trip id="mot316" depart="34.76" from="27570528#4" to="221893217#4" type="motorcycle"/>
    <trip id="mot317" depart="34.87" from="27467655#1" to="221893219#2" type="motorcycle"/>
    <trip id="mot318" depart="34.98" from="4734487" to="27570528#2" type="motorcycle"/>
    <trip id="mot319" depart="35.09" from="4523238#0" to="247833369#1" type="motorcycle"/>
    <trip id="mot320" depart="35.20" from="161389756#1" to="-386278913#0" type="motorcycle"/>
    <trip id="mot321" depart="35.31" from="327754983" to="473691594" type="motorcycle"/>
    <trip id="mot322" depart="35.42" from="-221893217#0" to="-487551846#1" type="motorcycle"/>