<?xml version="1.0" encoding="UTF-8"?>

<!-- generated on Mon Jan  1 11:39:36 2018 by SUMO netconvert Version 0.30.0
<?xml version="1.0" encoding="UTF-8"?>

<configuration xmlns:xsi="http://www.w3.org/2001/XMLSchema-instance" xsi:noNamespaceSchemaLocation="http://sumo.dlr.de/xsd/netconvertConfiguration.xsd">

    <input>
        <type-files value="/media/jefferson/Dados/workspace/sumo-0.30.0/data/typemap/osmNetconvert.typ.xml,/media/jefferson/Dados/workspace/sumo-0.30.0/data/typemap/osmNetconvertUrbanDe.typ.xml,/media/jefferson/Dados/workspace/sumo-0.30.0/data/typemap/osmNetconvertPedestrians.typ.xml,/media/jefferson/Dados/workspace/sumo-0.30.0/data/typemap/osmNetconvertBicycle.typ.xml"/>
        <osm-files value="/media/jefferson/Dados/workspace/GoodsTracker/vanet/sp/place/map.osm"/>
    </input>

    <output>
        <output-file value="/media/jefferson/Dados/workspace/GoodsTracker/vanet/sp/place/osm.net.xml"/>
        <output.street-names value="true"/>
        <output.original-names value="true"/>
    </output>

    <projection>
        <proj.utm value="true"/>
    </projection>

    <tls_building>
        <tls.discard-simple value="true"/>
        <tls.join value="true"/>
        <tls.guess-signals value="true"/>
    </tls_building>

    <ramp_guessing>
        <ramps.guess value="true"/>
    </ramp_guessing>

    <processing>
        <geometry.remove value="true"/>
        <roundabouts.guess value="true"/>
        <junctions.join value="true"/>
        <junctions.corner-detail value="5"/>
        <crossings.guess value="true"/>
    </processing>

    <report>
        <verbose value="true"/>
    </report>

</configuration>
-->

<net version="0.27" junctionCornerDetail="5" xmlns:xsi="http://www.w3.org/2001/XMLSchema-instance" xsi:noNamespaceSchemaLocation="http://sumo.dlr.de/xsd/net_file.xsd">

    <location netOffset="-320521.10,2617185.22" convBoundary="0.00,0.00,6818.61,7844.12" origBoundary="-46.759682,-23.656583,-46.692025,-23.585352" projParameter="+proj=utm +zone=23 +ellps=WGS84 +datum=WGS84 +units=m +no_defs"/>

    <type id="cycleway.lane" allow="bicycle" bikeLaneWidth="1.00"/>
    <type id="cycleway.opposite_lane" allow="bicycle" bikeLaneWidth="1.00"/>
    <type id="cycleway.opposite_track" allow="bicycle" bikeLaneWidth="1.50"/>
    <type id="cycleway.track" allow="bicycle" bikeLaneWidth="1.50"/>
    <type id="highway.bridleway" priority="1" numLanes="1" speed="2.78" allow="pedestrian" oneway="1" width="2.00"/>
    <type id="highway.bus_guideway" priority="1" numLanes="1" speed="8.33" allow="bus" oneway="1"/>
    <type id="highway.cycleway" priority="1" numLanes="1" speed="5.56" allow="bicycle" oneway="0" width="1.00"/>
    <type id="highway.footway" priority="1" numLanes="1" speed="2.78" allow="pedestrian" oneway="1" width="2.00"/>
    <type id="highway.ford" priority="1" numLanes="1" speed="2.78" allow="army" oneway="0"/>
    <type id="highway.living_street" priority="3" numLanes="1" speed="2.78" disallow="tram rail_urban rail rail_electric ship" oneway="0"/>
    <type id="highway.motorway" priority="13" numLanes="2" speed="27.78" allow="private emergency authority army vip passenger hov taxi bus coach delivery truck trailer motorcycle evehicle custom1 custom2" oneway="1"/>
    <type id="highway.motorway_link" priority="12" numLanes="1" speed="16.67" allow="private emergency authority army vip passenger hov taxi bus coach delivery truck trailer motorcycle evehicle custom1 custom2" oneway="1"/>
    <type id="highway.path" priority="1" numLanes="1" speed="2.78" allow="bicycle pedestrian" oneway="1" width="2.00"/>
    <type id="highway.pedestrian" priority="1" numLanes="1" speed="2.78" allow="pedestrian" oneway="1" width="2.00"/>
    <type id="highway.primary" priority="9" numLanes="2" speed="13.89" disallow="tram rail_urban rail rail_electric pedestrian ship" oneway="0" sidewalkWidth="3.00"/>
    <type id="highway.primary_link" priority="8" numLanes="1" speed="13.89" disallow="tram rail_urban rail rail_electric pedestrian ship" oneway="0" sidewalkWidth="3.00"/>
    <type id="highway.raceway" priority="14" numLanes="2" speed="83.33" allow="vip" oneway="0"/>
    <type id="highway.residential" priority="4" numLanes="1" speed="13.89" disallow="tram rail_urban rail rail_electric pedestrian ship" oneway="0" sidewalkWidth="2.00"/>
    <type id="highway.secondary" priority="7" numLanes="2" speed="13.89" disallow="tram rail_urban rail rail_electric pedestrian ship" oneway="0" sidewalkWidth="3.00"/>
    <type id="highway.secondary_link" priority="6" numLanes="1" speed="13.89" disallow="tram rail_urban rail rail_electric pedestrian ship" oneway="0" sidewalkWidth="3.00"/>
    <type id="highway.service" priority="2" numLanes="1" speed="5.56" allow="delivery bicycle pedestrian" oneway="0"/>
    <type id="highway.services" priority="1" numLanes="1" speed="8.33" disallow="tram rail_urban rail rail_electric ship" oneway="0"/>
    <type id="highway.stairs" priority="1" numLanes="1" speed="1.39" allow="pedestrian" oneway="1" width="2.00"/>
    <type id="highway.step" priority="1" numLanes="1" speed="1.39" allow="pedestrian" oneway="1" width="2.00"/>
    <type id="highway.steps" priority="1" numLanes="1" speed="1.39" allow="pedestrian" oneway="1" width="2.00"/>
    <type id="highway.tertiary" priority="6" numLanes="1" speed="13.89" disallow="tram rail_urban rail rail_electric pedestrian ship" oneway="0" sidewalkWidth="3.00"/>
    <type id="highway.tertiary_link" priority="5" numLanes="1" speed="13.89" disallow="tram rail_urban rail rail_electric pedestrian ship" oneway="0" sidewalkWidth="2.00"/>
    <type id="highway.track" priority="1" numLanes="1" speed="5.56" disallow="tram rail_urban rail rail_electric ship" oneway="0"/>
    <type id="highway.trunk" priority="11" numLanes="2" speed="13.89" disallow="tram rail_urban rail rail_electric bicycle pedestrian ship" oneway="0"/>
    <type id="highway.trunk_link" priority="10" numLanes="1" speed="13.89" disallow="tram rail_urban rail rail_electric bicycle pedestrian ship" oneway="0"/>
    <type id="highway.unclassified" priority="5" numLanes="1" speed="13.89" disallow="tram rail_urban rail rail_electric pedestrian ship" oneway="0" sidewalkWidth="2.00"/>
    <type id="highway.unsurfaced" priority="1" numLanes="1" speed="8.33" disallow="tram rail_urban rail rail_electric ship" oneway="0"/>
    <type id="railway.light_rail" priority="15" numLanes="1" speed="27.78" allow="rail_urban" oneway="1"/>
    <type id="railway.preserved" priority="15" numLanes="1" speed="27.78" allow="rail" oneway="1"/>
    <type id="railway.rail" priority="15" numLanes="1" speed="83.33" allow="rail rail_electric" oneway="1"/>
    <type id="railway.subway" priority="15" numLanes="1" speed="27.78" allow="rail_urban" oneway="1"/>
    <type id="railway.tram" priority="15" numLanes="1" speed="13.89" allow="tram" oneway="1"/>

    <edge id=":1011363295_0" function="internal">
        <lane id=":1011363295_0_0" index="0" allow="delivery bicycle pedestrian" speed="5.56" length="4.82" shape="3111.54,455.73 3113.01,455.95 3113.73,456.53 3113.70,457.45 3112.93,458.72"/>
    </edge>
    <edge id=":1011363369_0" function="internal">
        <lane id=":1011363369_0_0" index="0" allow="delivery bicycle pedestrian" speed="5.56" length="9.90" shape="2821.01,743.55 2820.95,740.60 2820.99,738.54 2820.73,736.56 2819.77,733.83"/>
    </edge>
    <edge id=":1011363369_1" function="internal">
        <lane id=":1011363369_1_0" index="0" allow="delivery bicycle pedestrian" speed="5.56" length="17.74" shape="2821.01,743.55 2821.05,737.19 2822.28,734.48 2824.69,735.42 2828.28,740.01"/>
    </edge>
    <edge id=":1011363369_2" function="internal">
        <lane id=":1011363369_2_0" index="0" allow="delivery bicycle pedestrian" speed="5.56" length="9.82" shape="2824.56,742.40 2819.77,733.83"/>
    </edge>
    <edge id=":1011363369_3" function="internal">
        <lane id=":1011363369_3_0" index="0" allow="delivery bicycle pedestrian" speed="5.56" length="6.45" shape="2824.56,742.40 2824.59,740.41 2825.22,739.35 2826.45,739.22 2828.28,740.01"/>
    </edge>
    <edge id=":1011363369_4" function="internal">
        <lane id=":1011363369_4_0" index="0" allow="delivery bicycle pedestrian" speed="5.56" length="9.33" shape="2822.79,732.52 2824.07,734.94 2825.28,736.41 2826.61,737.80 2828.28,740.01"/>
    </edge>
    <edge id=":1011363369_5" function="internal">
        <lane id=":1011363369_5_0" index="0" allow="delivery bicycle pedestrian" speed="5.56" length="4.82" shape="2822.79,732.52 2822.53,733.99 2821.93,734.69 2821.01,734.64 2819.77,733.83"/>
    </edge>
    <edge id=":1011363369_w0" function="walkingarea">
        <lane id=":1011363369_w0_0" index="0" allow="pedestrian" speed="1.00" length="8.02" width="3.20" shape="2819.41,743.65 2822.61,743.44 2823.15,743.15 2825.97,741.65 2826.94,740.89 2829.62,739.14 2824.26,731.89 2821.33,733.16 2821.23,733.20 2818.30,734.47 2819.35,741.66 2819.39,740.16 2819.43,738.92 2819.33,737.71 2819.00,736.30"/>
    </edge>
    <edge id=":1733638554_0" function="internal">
        <lane id=":1733638554_0_0" index="0" allow="private emergency authority army vip passenger hov taxi bus coach delivery truck trailer motorcycle evehicle custom1 custom2" speed="16.67" length="13.96" shape="2970.95,1239.29 2974.55,1239.60 2977.95,1239.95 2981.33,1240.03 2984.85,1239.52"/>
    </edge>
    <edge id=":1733638554_1" function="internal">
        <lane id=":1733638554_1_0" index="0" allow="private emergency authority army vip passenger hov taxi bus coach delivery truck trailer motorcycle evehicle custom1 custom2" speed="16.67" length="13.98" shape="2971.29,1242.90 2984.85,1239.52"/>
    </edge>
    <edge id=":1733638557_0" function="internal">
        <lane id=":1733638557_0_0" index="0" disallow="tram rail_urban rail rail_electric pedestrian ship" speed="13.89" length="18.72" shape="2930.44,1231.82 2927.43,1228.41 2923.71,1226.98 2919.28,1227.53 2914.15,1230.06"/>
    </edge>
    <edge id=":1733638557_1" function="internal">
        <lane id=":1733638557_1_0" index="0" disallow="tram rail_urban rail rail_electric pedestrian ship" speed="13.89" length="12.09" shape="2930.44,1231.82 2922.19,1222.98"/>
    </edge>
    <edge id=":1733638557_2" function="internal">
        <lane id=":1733638557_2_0" index="0" disallow="tram rail_urban rail rail_electric pedestrian ship" speed="13.89" length="13.79" shape="2927.10,1225.87 2923.05,1226.48 2920.26,1227.01 2917.65,1228.01 2914.15,1230.06"/>
    </edge>
    <edge id=":1733638557_3" function="internal">
        <lane id=":1733638557_3_0" index="0" disallow="tram rail_urban rail rail_electric pedestrian ship" speed="13.89" length="12.13" shape="2927.10,1225.87 2922.03,1226.49 2919.53,1226.21 2919.58,1225.04 2922.19,1222.98"/>
    </edge>
    <edge id=":1733638557_4" function="internal">
        <lane id=":1733638557_4_0" index="0" disallow="tram rail_urban rail rail_electric pedestrian ship" speed="13.89" length="10.76" shape="2912.37,1227.28 2915.17,1225.79 2917.28,1225.13 2919.39,1224.47 2922.19,1222.98"/>
    </edge>
    <edge id=":1733638557_5" function="internal">
        <lane id=":1733638557_5_0" index="0" disallow="tram rail_urban rail rail_electric pedestrian ship" speed="13.89" length="4.82" shape="2912.37,1227.28 2913.85,1227.31 2914.65,1227.78 2914.75,1228.69 2914.15,1230.06"/>
    </edge>
    <edge id=":1733638557_c0" function="crossing" crossingEdges="8369310">
        <lane id=":1733638557_c0_0" index="0" allow="pedestrian" speed="1.00" length="3.20" width="4.00" shape="2930.77,1229.28 2928.04,1230.94"/>
    </edge>
    <edge id=":1733638557_c1" function="crossing" crossingEdges="161389766#1">
        <lane id=":1733638557_c1_0" index="0" allow="pedestrian" speed="1.00" length="3.20" width="4.00" shape="2924.87,1224.62 2925.39,1227.78"/>
    </edge>
    <edge id=":1733638557_c2" function="crossing" crossingEdges="161389764">
        <lane id=":1733638557_c2_0" index="0" allow="pedestrian" speed="1.00" length="3.20" width="4.00" shape="2919.64,1222.72 2921.37,1225.41"/>
    </edge>
    <edge id=":1733638557_c3" function="crossing" crossingEdges="-4734472 4734472">
        <lane id=":1733638557_c3_0" index="0" allow="pedestrian" speed="1.00" length="6.50" width="4.00" shape="2916.70,1230.32 2913.19,1224.85"/>
    </edge>
    <edge id=":1733638557_w0" function="walkingarea">
        <lane id=":1733638557_w0_0" index="0" allow="pedestrian" speed="1.00" length="8.82" width="4.00" shape="2915.01,1231.40 2915.07,1231.49 2916.15,1233.17 2928.00,1234.24 2928.35,1232.27 2929.07,1232.65 2927.44,1230.56 2925.52,1229.22 2923.32,1228.64 2920.84,1228.81 2918.07,1229.73"/>
    </edge>
    <edge id=":1733638557_w1" function="walkingarea">
        <lane id=":1733638557_w1_0" index="0" allow="pedestrian" speed="1.00" length="3.73" width="4.00" shape="2929.74,1227.57 2931.81,1231.00 2927.75,1229.52 2927.42,1227.55 2927.37,1227.45 2923.42,1228.11"/>
    </edge>
    <edge id=":1733638557_w2" function="walkingarea">
        <lane id=":1733638557_w2_0" index="0" allow="pedestrian" speed="1.00" length="6.62" width="4.00" shape="2921.32,1221.63 2921.27,1221.55 2920.18,1219.87 2910.37,1224.17 2911.45,1225.85 2913.48,1224.81 2915.05,1224.18 2916.41,1223.79 2917.78,1223.40 2919.34,1222.76"/>
    </edge>
    <edge id=":1733638557_w3" function="walkingarea">
        <lane id=":1733638557_w3_0" index="0" allow="pedestrian" speed="1.00" length="3.58" width="4.00" shape="2919.69,1226.49 2923.05,1224.33 2926.84,1224.30 2922.89,1224.95"/>
    </edge>
    <edge id=":1733638570_0" function="internal">
        <lane id=":1733638570_0_0" index="0" disallow="tram rail_urban rail rail_electric pedestrian ship" speed="13.89" length="14.94" shape="2942.60,1207.89 2946.30,1205.43 2949.00,1203.93 2951.47,1202.19 2954.48,1199.00"/>
    </edge>
    <edge id=":1733638570_1" function="internal">
        <lane id=":1733638570_1_0" index="0" disallow="tram rail_urban rail rail_electric pedestrian ship" speed="13.89" length="14.17" shape="2948.33,1211.67 2949.96,1207.79 2950.88,1205.00 2952.07,1202.39 2954.48,1199.00"/>
    </edge>
    <edge id=":1733638570_c0" function="crossing" crossingEdges="161389764">
        <lane id=":1733638570_c0_0" index="0" allow="pedestrian" speed="1.00" length="3.20" width="4.00" shape="2945.16,1207.97 2943.24,1205.41"/>
    </edge>
    <edge id=":1733638570_w0" function="walkingarea">
        <lane id=":1733638570_w0_0" index="0" allow="pedestrian" speed="1.00" length="9.51" width="4.00" shape="2953.17,1197.93 2950.85,1196.02 2940.38,1204.92 2941.58,1206.52 2941.64,1206.60 2944.19,1204.85 2946.20,1203.69 2947.89,1202.77 2949.48,1201.74 2951.19,1200.26"/>
    </edge>
    <edge id=":1733638570_w1" function="walkingarea">
        <lane id=":1733638570_w1_0" index="0" allow="pedestrian" speed="1.00" length="2.32" width="4.00" shape="2943.56,1209.17 2944.10,1209.62 2946.80,1210.93 2947.71,1209.05 2947.98,1207.77 2947.70,1207.15 2946.87,1207.17 2945.49,1207.85"/>
    </edge>
    <edge id=":1733690277_0" function="internal">
        <lane id=":1733690277_0_0" index="0" disallow="tram rail_urban rail rail_electric pedestrian ship" speed="13.89" length="22.83" shape="2316.55,1437.46 2310.86,1434.99 2306.40,1433.80 2301.67,1433.82 2295.16,1434.95"/>
        <lane id=":1733690277_0_1" index="1" disallow="tram rail_urban rail rail_electric pedestrian ship" speed="13.89" length="22.83" shape="2316.55,1437.46 2310.84,1434.46 2306.29,1432.14 2301.36,1431.04 2294.49,1431.72"/>
    </edge>
    <edge id=":1733690277_2" function="internal">
        <lane id=":1733690277_2_0" index="0" disallow="tram rail_urban rail rail_electric pedestrian ship" speed="13.89" length="21.34" shape="2316.05,1430.34 2295.16,1434.95"/>
        <lane id=":1733690277_2_1" index="1" disallow="tram rail_urban rail rail_electric pedestrian ship" speed="13.89" length="21.34" shape="2315.34,1427.12 2294.49,1431.72"/>
        <lane id=":1733690277_2_2" index="2" disallow="tram rail_urban rail rail_electric pedestrian ship" speed="13.89" length="21.34" shape="2314.63,1423.90 2293.81,1428.49"/>
        <lane id=":1733690277_2_3" index="3" disallow="tram rail_urban rail rail_electric pedestrian ship" speed="13.89" length="21.34" shape="2313.92,1420.68 2293.13,1425.26"/>
    </edge>
    <edge id=":1733690277_c0" function="crossing" crossingEdges="4902474">
        <lane id=":1733690277_c0_0" index="0" allow="pedestrian" speed="1.00" length="3.20" width="4.00" shape="2315.40,1435.17 2314.06,1438.07"/>
    </edge>
    <edge id=":1733690277_w0" function="walkingarea">
        <lane id=":1733690277_w0_0" index="0" allow="pedestrian" speed="1.00" length="13.78" width="4.00" shape="2295.51,1436.61 2296.13,1439.55 2315.09,1441.96 2316.35,1439.24 2315.88,1438.91 2311.83,1437.09 2308.68,1435.91 2305.96,1435.31 2303.17,1435.25 2299.84,1435.66"/>
    </edge>
    <edge id=":1733690277_w1" function="walkingarea">
        <lane id=":1733690277_w1_0" index="0" allow="pedestrian" speed="1.00" length="2.16" width="4.00" shape="2317.22,1436.00 2317.06,1434.93 2316.42,1432.00 2314.90,1432.35 2314.06,1432.90 2313.87,1433.53 2314.34,1434.26 2315.45,1435.09"/>
    </edge>
    <edge id=":1733690285_0" function="internal">
        <lane id=":1733690285_0_0" index="0" allow="delivery bicycle pedestrian" speed="9.72" length="11.62" shape="2507.39,1373.74 2504.22,1374.31 2501.67,1374.75 2499.13,1375.27 2496.02,1376.09"/>
    </edge>
    <edge id=":1733690285_1" function="internal">
        <lane id=":1733690285_1_0" index="0" allow="delivery bicycle pedestrian" speed="9.72" length="11.63" shape="2506.03,1370.30 2503.36,1372.14 2501.24,1373.68 2499.02,1374.97 2496.02,1376.09"/>
    </edge>
    <edge id=":1733690285_w0" function="walkingarea">
        <lane id=":1733690285_w0_0" index="0" allow="pedestrian" speed="1.00" length="8.96" width="3.20" shape="2507.70,1375.32 2507.09,1372.17 2506.89,1371.65 2505.17,1368.95 2495.57,1374.56 2496.47,1377.63 2505.29,1375.75 2503.51,1376.04 2502.03,1376.28 2500.57,1376.56 2498.82,1376.97"/>
    </edge>
    <edge id=":1733690302_0" function="internal">
        <lane id=":1733690302_0_0" index="0" allow="delivery bicycle pedestrian" speed="5.56" length="8.59" shape="2536.60,1340.23 2534.05,1340.59 2532.20,1340.88 2530.66,1341.64 2529.05,1343.45"/>
    </edge>
    <edge id=":1733690302_1" function="internal">
        <lane id=":1733690302_1_0" index="0" allow="delivery bicycle pedestrian" speed="9.72" length="14.04" shape="2536.60,1340.23 2532.92,1340.16 2529.32,1339.31 2525.95,1338.91 2522.94,1340.17"/>
    </edge>
    <edge id=":1733690302_2" function="internal">
        <lane id=":1733690302_2_0" index="0" allow="delivery bicycle pedestrian" speed="5.56" length="14.68" shape="2536.60,1340.23 2533.07,1340.42 2529.76,1339.59 2526.65,1337.71 2523.76,1334.80"/>
    </edge>
    <edge id=":1733690302_w0" function="walkingarea">
        <lane id=":1733690302_w0_0" index="0" allow="pedestrian" speed="1.00" length="9.72" width="3.20" shape="2536.91,1341.80 2536.29,1338.66 2525.00,1333.79 2522.52,1335.81 2521.87,1338.98 2524.01,1341.36 2527.74,1342.53 2530.36,1344.37 2535.36,1342.02 2534.13,1342.13 2533.10,1342.26 2532.19,1342.57 2531.31,1343.23"/>
    </edge>
    <edge id=":1733690308_0" function="internal">
        <lane id=":1733690308_0_0" index="0" disallow="tram rail_urban rail rail_electric pedestrian ship" speed="13.89" length="4.97" shape="2919.68,1330.22 2924.61,1329.52"/>
        <lane id=":1733690308_0_1" index="1" disallow="tram rail_urban rail rail_electric pedestrian ship" speed="13.89" length="4.97" shape="2920.15,1333.49 2925.06,1332.78"/>
    </edge>
    <edge id=":1733690308_w0" function="walkingarea">
        <lane id=":1733690308_w0_0" index="0" allow="pedestrian" speed="1.00" length="4.29" width="3.00" shape="2924.37,1327.83 2923.95,1324.86 2922.33,1323.58 2920.34,1323.76 2919.00,1325.57 2919.43,1328.54"/>
    </edge>
    <edge id=":1733690311_0" function="internal">
        <lane id=":1733690311_0_0" index="0" allow="delivery bicycle pedestrian" speed="5.56" length="9.28" shape="2515.99,1325.18 2517.57,1322.93 2518.80,1321.50 2520.07,1320.10 2521.77,1317.93"/>
    </edge>
    <edge id=":1733690311_1" function="internal">
        <lane id=":1733690311_1_0" index="0" allow="delivery bicycle pedestrian" speed="5.56" length="9.53" shape="2519.98,1326.91 2519.66,1324.11 2519.67,1322.10 2520.28,1320.26 2521.77,1317.93"/>
    </edge>
    <edge id=":1733690311_w0" function="walkingarea">
        <lane id=":1733690311_w0_0" index="0" allow="pedestrian" speed="1.00" length="7.59" width="3.20" shape="2523.06,1318.87 2520.48,1316.99 2514.65,1324.31 2517.34,1326.04 2518.39,1327.09 2521.57,1326.73 2522.11,1320.30 2521.53,1321.46 2521.27,1322.52 2521.23,1323.65 2521.36,1324.99"/>
    </edge>
    <edge id=":1733690318_0" function="internal">
        <lane id=":1733690318_0_0" index="0" allow="delivery bicycle pedestrian" speed="5.56" length="3.00" shape="2696.94,1305.14 2694.04,1305.89"/>
    </edge>
    <edge id=":1733690318_1" function="internal">
        <lane id=":1733690318_1_0" index="0" allow="delivery bicycle pedestrian" speed="5.56" length="3.00" shape="2696.94,1305.14 2694.04,1305.89"/>
    </edge>
    <edge id=":1733690318_w0" function="walkingarea">
        <lane id=":1733690318_w0_0" index="0" allow="pedestrian" speed="1.00" length="3.00" width="3.20" shape="2697.34,1306.69 2696.54,1303.59 2697.34,1306.69 2696.54,1303.59 2693.64,1304.34 2694.44,1307.44"/>
    </edge>
    <edge id=":1733690338_0" function="internal">
        <lane id=":1733690338_0_0" index="0" disallow="tram rail_urban rail rail_electric pedestrian ship" speed="13.89" length="37.15" shape="2868.19,1280.35 2878.99,1277.31 2886.46,1274.03 2893.10,1270.21 2901.42,1265.55"/>
        <lane id=":1733690338_0_1" index="1" disallow="tram rail_urban rail rail_electric pedestrian ship" speed="13.89" length="37.15" shape="2868.93,1283.57 2880.13,1280.40 2887.95,1276.98 2894.82,1273.04 2903.23,1268.33"/>
    </edge>
    <edge id=":1733690338_2" function="internal">
        <lane id=":1733690338_2_0" index="0" disallow="tram rail_urban rail rail_electric pedestrian ship" speed="13.89" length="37.21" shape="2868.93,1283.57 2905.16,1274.69"/>
        <lane id=":1733690338_2_1" index="1" disallow="tram rail_urban rail rail_electric pedestrian ship" speed="13.89" length="37.21" shape="2869.66,1286.79 2905.80,1277.92"/>
        <lane id=":1733690338_2_2" index="2" disallow="tram rail_urban rail rail_electric pedestrian ship" speed="13.89" length="37.21" shape="2870.39,1290.01 2906.45,1281.16"/>
    </edge>
    <edge id=":1733690338_c0" function="crossing" crossingEdges="161389765">
        <lane id=":1733690338_c0_0" index="0" allow="pedestrian" speed="1.00" length="6.51" width="4.00" shape="2898.91,1265.05 2902.19,1270.67"/>
    </edge>
    <edge id=":1733690338_w0" function="walkingarea">
        <lane id=":1733690338_w0_0" index="0" allow="pedestrian" speed="1.00" length="2.50" width="4.00" shape="2904.83,1273.02 2904.24,1270.08 2903.92,1269.66 2900.92,1271.44 2899.15,1272.67 2898.66,1273.46 2899.45,1273.80 2901.51,1273.68"/>
    </edge>
    <edge id=":1733690338_w1" function="walkingarea">
        <lane id=":1733690338_w1_0" index="0" allow="pedestrian" speed="1.00" length="23.76" width="4.00" shape="2900.63,1264.04 2900.36,1264.19 2898.97,1261.52 2867.15,1275.77 2867.81,1278.70 2875.25,1276.90 2880.60,1275.06 2884.85,1273.07 2888.97,1270.73 2893.92,1267.82"/>
    </edge>
    <edge id=":1733690359_0" function="internal">
        <lane id=":1733690359_0_0" index="0" allow="private emergency authority army vip passenger hov taxi bus coach delivery truck trailer motorcycle evehicle custom1 custom2" speed="15.28" length="17.71" shape="3028.28,1140.28 3030.29,1145.66 3032.42,1149.60 3034.59,1152.74 3036.72,1155.72"/>
    </edge>
    <edge id=":1733690359_1" function="internal">
        <lane id=":1733690359_1_0" index="0" disallow="tram rail_urban rail rail_electric pedestrian ship" speed="13.89" length="15.19" shape="3028.28,1140.28 3029.30,1144.74 3029.37,1147.89 3029.09,1151.11 3029.05,1155.75"/>
        <lane id=":1733690359_1_1" index="1" disallow="tram rail_urban rail rail_electric pedestrian ship" speed="13.89" length="15.19" shape="3025.12,1141.24 3026.07,1145.46 3026.11,1148.46 3025.81,1151.51 3025.75,1155.90"/>
    </edge>
    <edge id=":1733690362_0" function="internal">
        <lane id=":1733690362_0_0" index="0" disallow="tram rail_urban rail rail_electric pedestrian ship" speed="13.89" length="4.83" shape="2989.67,1070.64 2987.71,1066.32"/>
        <lane id=":1733690362_0_1" index="1" disallow="tram rail_urban rail rail_electric pedestrian ship" speed="13.89" length="4.83" shape="2992.71,1069.36 2990.69,1064.89"/>
    </edge>
    <edge id=":1733690362_c0" function="crossing" crossingEdges="249697090#0">
        <lane id=":1733690362_c0_0" index="0" allow="pedestrian" speed="1.00" length="6.50" width="4.00" shape="2993.41,1066.90 2987.42,1069.41"/>
    </edge>
    <edge id=":1733690362_w0" function="walkingarea">
        <lane id=":1733690362_w0_0" index="0" allow="pedestrian" speed="1.00" length="3.41" width="4.00" shape="2986.18,1067.06 2983.48,1068.37 2985.33,1072.46 2988.10,1071.30 2986.64,1067.57"/>
    </edge>
    <edge id=":1733690362_w1" function="walkingarea">
        <lane id=":1733690362_w1_0" index="0" allow="pedestrian" speed="1.00" length="1.59" width="4.00" shape="2992.64,1065.06 2994.18,1068.75 2994.99,1066.70 2994.13,1064.90"/>
    </edge>
    <edge id=":1733690363_0" function="internal">
        <lane id=":1733690363_0_0" index="0" disallow="tram rail_urban rail rail_electric pedestrian ship" speed="13.89" length="5.43" shape="3000.03,1060.16 3000.82,1061.64 3001.33,1062.67 3001.77,1063.73 3002.37,1065.30"/>
        <lane id=":1733690363_0_1" index="1" disallow="tram rail_urban rail rail_electric pedestrian ship" speed="13.89" length="5.43" shape="2997.13,1061.72 2997.86,1063.09 2998.32,1064.04 2998.73,1065.02 2999.28,1066.46"/>
    </edge>
    <edge id=":1733690363_c0" function="crossing" crossingEdges="4734475#5">
        <lane id=":1733690363_c0_0" index="0" allow="pedestrian" speed="1.00" length="6.50" width="4.00" shape="2996.67,1064.24 3002.39,1061.16"/>
    </edge>
    <edge id=":1733690363_w0" function="walkingarea">
        <lane id=":1733690363_w0_0" index="0" allow="pedestrian" speed="1.00" length="4.29" width="4.00" shape="3003.96,1064.70 3006.77,1063.64 3004.17,1057.93 3001.53,1059.35 3001.44,1059.40 3002.03,1060.50 3002.46,1061.32 3002.79,1062.01 3003.09,1062.71 3003.42,1063.57"/>
    </edge>
    <edge id=":1733690363_w1" function="walkingarea">
        <lane id=":1733690363_w1_0" index="0" allow="pedestrian" speed="1.00" length="1.64" width="4.00" shape="2995.72,1062.48 2995.04,1064.46 2995.90,1066.27 2997.41,1066.04 2997.12,1065.30 2996.87,1064.71 2996.59,1064.12 2996.22,1063.42"/>
    </edge>
    <edge id=":1733690367_0" function="internal">
        <lane id=":1733690367_0_0" index="0" allow="delivery bicycle pedestrian" speed="9.73" length="15.68" shape="2953.90,987.52 2957.17,991.00 2960.55,992.64 2964.00,993.45 2967.47,994.43"/>
    </edge>
    <edge id=":1733690367_1" function="internal">
        <lane id=":1733690367_1_0" index="0" disallow="tram rail_urban rail rail_electric pedestrian ship" speed="13.89" length="14.73" shape="2953.90,987.52 2962.58,999.34"/>
        <lane id=":1733690367_1_1" index="1" disallow="tram rail_urban rail rail_electric pedestrian ship" speed="13.89" length="14.73" shape="2951.17,989.37 2959.92,1001.30"/>
    </edge>
    <edge id=":1733690367_w0" function="walkingarea">
        <lane id=":1733690367_w0_0" index="0" allow="pedestrian" speed="1.00" length="10.77" width="3.20" shape="2963.95,998.34 2966.37,996.56 2966.87,995.92 2968.07,992.95 2957.79,984.88 2955.31,986.57"/>
    </edge>
    <edge id=":1733690370_0" function="internal">
        <lane id=":1733690370_0_0" index="0" disallow="tram rail_urban rail rail_electric pedestrian ship" speed="13.89" length="5.32" shape="2859.22,874.79 2858.21,873.51 2857.54,872.62 2856.92,871.69 2856.04,870.32"/>
        <lane id=":1733690370_0_1" index="1" disallow="tram rail_urban rail rail_electric pedestrian ship" speed="13.89" length="5.32" shape="2861.81,872.75 2860.86,871.54 2860.23,870.70 2859.65,869.83 2858.82,868.55"/>
    </edge>
    <edge id=":1733690370_c0" function="crossing" crossingEdges="249697090#1">
        <lane id=":1733690370_c0_0" index="0" allow="pedestrian" speed="1.00" length="6.50" width="4.00" shape="2861.82,870.19 2856.72,874.21"/>
    </edge>
    <edge id=":1733690370_w0" function="walkingarea">
        <lane id=":1733690370_w0_0" index="0" allow="pedestrian" speed="1.00" length="4.13" width="4.00" shape="2854.61,871.24 2852.08,872.85 2855.53,877.70 2857.88,875.84 2857.22,874.84 2856.67,874.13 2856.24,873.54 2855.83,872.94 2855.34,872.20"/>
    </edge>
    <edge id=":1733690370_w1" function="walkingarea">
        <lane id=":1733690370_w1_0" index="0" allow="pedestrian" speed="1.00" length="1.30" width="4.00" shape="2863.06,871.76 2863.09,869.89 2861.92,868.26 2860.74,868.58 2861.17,869.24 2861.54,869.77 2861.92,870.30 2862.40,870.92"/>
    </edge>
    <edge id=":1733690371_0" function="internal">
        <lane id=":1733690371_0_0" index="0" disallow="tram rail_urban rail rail_electric pedestrian ship" speed="13.89" length="4.82" shape="2866.56,863.60 2869.10,867.59"/>
        <lane id=":1733690371_0_1" index="1" disallow="tram rail_urban rail rail_electric pedestrian ship" speed="13.89" length="4.82" shape="2863.73,865.29 2866.37,869.43"/>
    </edge>
    <edge id=":1733690371_c0" function="crossing" crossingEdges="4734475#3">
        <lane id=":1733690371_c0_0" index="0" allow="pedestrian" speed="1.00" length="6.50" width="4.00" shape="2863.37,867.83 2868.96,864.50"/>
    </edge>
    <edge id=":1733690371_w0" function="walkingarea">