<?xml version="1.0"?>
<!-- generated on 2018-01-15 20:03:28.689139 by $Id: randomTrips.py 23999 2017-04-21 09:04:47Z behrisch $
  options: <doubleminus>seed 42 <doubleminus>vehicle-class bus <doubleminus>min-distance 1000 <doubleminus>fringe-factor 5 <doubleminus>prefix bus -n /media/jefferson/Dados/workspace/gtracker/vanet/sp/sp.net.xml -r /media/jefferson/Dados/workspace/gtracker/vanet/sp/sp.bus.rou.xml -p 3 -e 3600 -o /media/jefferson/Dados/workspace/gtracker/vanet/sp/sp.bus.trips.xml
-->
<routes xmlns:xsi="http://www.w3.org/2001/XMLSchema-instance" xsi:noNamespaceSchemaLocation="http://sumo.dlr.de/xsd/routes_file.xsd">
    <vType id="bus" vClass="bus" />
    <trip id="bus0" depart="0.00" from="462566123" to="4734490" type="bus"/>
    <trip id="bus1" depart="3.00" from="-221893217#0" to="-4902418#4" type="bus"/>
    <trip id="bus2" depart="6.00" from="4902394#3" to="-162043157#1" type="bus"/>
    <trip id="bus3" depart="9.00" from="4902394#1" to="4774365#1" type="bus"/>
    <trip id="bus4" depart="12.00" from="-549928646#1" to="-4734472" type="bus"/>
    <trip id="bus5" depart="15.00" from="550753287#3" to="161392081" type="bus"/>
    <trip id="bus6" depart="18.00" from="4902394#2" to="4877455" type="bus"/>
    <trip id="bus7" depart="21.00" from="27570527#0" to="550867442#2" type="bus"/>
    <trip id="bus8" depart="24.00" from="-8154723" to="319453545#1" type="bus"/>
    <trip id="bus9" depart="27.00" from="4902421" to="39368524#2" type="bus"/>
    <trip id="bus10" depart="30.00" from="4902453" to="329013842" type="bus"/>
    <trip id="bus11" depart="33.00" from="-4877450" to="161389758" type="bus"/>
    <trip id="bus12" depart="36.00" from="-28788361#0" to="15968284" type="bus"/>
    <trip id="bus13" depart="39.00" from="-550867442#2" to="-4902441" type="bus"/>
    <trip id="bus14" depart="42.00" from="-386278913" to="4877455" type="bus"/>
    <trip id="bus15" depart="45.00" from="96097829#0" to="4559005#0" type="bus"/>
    <trip id="bus16" depart="48.00" from="-4877450" to="-221893257" type="bus"/>
    <trip id="bus17" depart="51.00" from="-4774365#1" to="550753287#2" type="bus"/>
    <trip id="bus18" depart="54.00" from="518473679" to="161392068" type="bus"/>
    <trip id="bus19" depart="57.00" from="344144147#0" to="245553663#4" type="bus"/>
    <trip id="bus20" depart="60.00" from="161392059#0" to="-4902453" type="bus"/>
    <trip id="bus21" depart="63.00" from="96097829#2" to="28788370#1" type="bus"/>
    <trip id="bus22" depart="66.00" from="-28788365#2" to="4328546#2" type="bus"/>
    <trip id="bus23" depart="69.00" from="96097829#1" to="28885055#1" type="bus"/>
    <trip id="bus24" depart="72.00" from="28885070#1" to="-462566123" type="bus"/>
    <trip id="bus25" depart="75.00" from="475330829" to="28885070#1" type="bus"/>
    <trip id="bus26" depart="78.00" from="518473680" to="550753287#5" type="bus"/>
    <trip id="bus27" depart="81.00" from="473684642#1" to="-341224416" type="bus"/>
    <trip id="bus28" depart="84.00" from="161392075#1" to="-4902441" type="bus"/>
    <trip id="bus29" depart="87.00" from="27570527#2" to="4877455" type="bus"/>
    <trip id="bus30" depart="90.00" from="96097829#0" to="4559074#3" type="bus"/>
    <trip id="bus31" depart="93.00" from="162154108#0" to="28885040#2" type="bus"/>
    <trip id="bus32" depart="96.00" from="-548651990#1" to="386114209" type="bus"/>
    <trip id="bus33" depart="99.00" from="-4877455" to="-4902453" type="bus"/>
    <trip id="bus34" depart="102.00" from="-27803780#2" to="438155977#1" type="bus"/>
    <trip id="bus35" depart="105.00" from="-4877450" to="550712032#1" type="bus"/>
    <trip id="bus36" depart="108.00" from="-4902377#0" to="4734475#3" type="bus"/>
    <trip id="bus37" depart="111.00" from="229481708#2" to="4902433" type="bus"/>
    <trip id="bus38" depart="114.00" from="-27840841#1" to="249870999" type="bus"/>
    <trip id="bus39" depart="117.00" from="462564634" to="4734487" type="bus"/>
    <trip id="bus40" depart="120.00" from="161392064#0" to="162043157#0" type="bus"/>
    <trip id="bus41" depart="123.00" from="4902453" to="-550712033" type="bus"/>
    <trip id="bus42" depart="126.00" from="-4902394#5" to="550732345" type="bus"/>
    <trip id="bus43" depart="129.00" from="4902441" to="-473691590#0" type="bus"/>
    <trip id="bus44" depart="132.00" from="245546867" to="-4902444" type="bus"/>
    <trip id="bus45" depart="135.00" from="550753287#4" to="96097794" type="bus"/>
    <trip id="bus46" depart="138.00" from="-341224416" to="161389762-AddedOnRampEdge" type="bus"/>
    <trip id="bus47" depart="141.00" from="-386114209" to="550860118#2" type="bus"/>
    <trip id="bus48" depart="144.00" from="28885040#2" to="4734488" type="bus"/>
    <trip id="bus49" depart="147.00" from="-4877455" to="-28885070#1" type="bus"/>
    <trip id="bus50" depart="150.00" from="4902414#1" to="161389765" type="bus"/>
    <trip id="bus51" depart="153.00" from="380438949#0" to="550753287#0" type="bus"/>
    <trip id="bus52" depart="156.00" from="-28788365#0" to="323823408" type="bus"/>
    <trip id="bus53" depart="159.00" from="327754983" to="-8154721#1" type="bus"/>
    <trip id="bus54" depart="162.00" from="245553663#0" to="550712032#1" type="bus"/>
    <trip id="bus55" depart="165.00" from="161392075#1" to="143331549#2" type="bus"/>
    <trip id="bus56" depart="168.00" from="161392080" to="-162154108#0" type="bus"/>
    <trip id="bus57" depart="171.00" from="4902431" to="380438949#0" type="bus"/>
    <trip id="bus58" depart="174.00" from="4902374#3" to="518474788" type="bus"/>
    <trip id="bus59" depart="177.00" from="549915319" to="-4902441" type="bus"/>
    <trip id="bus60" depart="180.00" from="4902453" to="550867442#2" type="bus"/>
    <trip id="bus61" depart="183.00" from="-4877450" to="511815819" type="bus"/>
    <trip id="bus62" depart="186.00" from="550712036#2" to="-28885070#0" type="bus"/>
    <trip id="bus63" depart="189.00" from="550860119#0" to="-4902394#1" type="bus"/>
    <trip id="bus64" depart="192.00" from="-28788365#1" to="249871000" type="bus"/>
    <trip id="bus65" depart="195.00" from="161389756#0" to="327956374" type="bus"/>
    <trip id="bus66" depart="198.00" from="-4902394#7" to="4774404" type="bus"/>
    <trip id="bus67" depart="201.00" from="27570527#1" to="4877450" type="bus"/>
    <trip id="bus68" depart="204.00" from="-550867442#1" to="-27840836" type="bus"/>
    <trip id="bus69" depart="207.00" from="161392064#0" to="161389762-AddedOnRampEdge" type="bus"/>
    <trip id="bus70" depart="210.00" from="-143331549#0" to="161389756#0" type="bus"/>
    <trip id="bus71" depart="213.00" from="344144147#0" to="27840838#0" type="bus"/>
    <trip id="bus72" depart="216.00" from="39368522#0" to="-4902453" type="bus"/>
    <trip id="bus73" depart="219.00" from="4902441" to="-27840838#1" type="bus"/>
    <trip id="bus74" depart="222.00" from="245553663#1" to="-549928646#1" type="bus"/>
    <trip id="bus75" depart="225.00" from="4734475#2" to="4902416#0" type="bus"/>
    <trip id="bus76" depart="228.00" from="-28788365#0" to="249697090#2" type="bus"/>
    <trip id="bus77" depart="231.00" from="-386278913" to="550860118#0" type="bus"/>
    <trip id="bus78" depart="234.00" from="-4902394#5" to="518473678" type="bus"/>
    <trip id="bus79" depart="237.00" from="39368522#0" to="86936182" type="bus"/>
    <trip id="bus80" depart="240.00" from="28885040#2" to="550753287#5" type="bus"/>
    <trip id="bus81" depart="243.00" from="4902421" to="319453543#6" type="bus"/>
    <trip id="bus82" depart="246.00" from="-4902394#3" to="438155977#1-AddedOnRampEdge" type="bus"/>
    <trip id="bus83" depart="249.00" from="473684642#0" to="28885040#4" type="bus"/>
    <trip id="bus84" depart="252.00" from="319453543#6" to="143331549#2" type="bus"/>
    <trip id="bus85" depart="255.00" from="-4902418#4" to="161392068" type="bus"/>
    <trip id="bus86" depart="258.00" from="27570527#2" to="-39368522#2" type="bus"/>
    <trip id="bus87" depart="261.00" from="-4877455" to="475330829" type="bus"/>
    <trip id="bus88" depart="264.00" from="161392070" to="-4902441" type="bus"/>
    <trip id="bus89" depart="267.00" from="161392074" to="550712032#1" type="bus"/>
    <trip id="bus90" depart="270.00" from="-550735550" to="4902394#4" type="bus"/>
    <trip id="bus91" depart="273.00" from="-4774404" to="-4902453" type="bus"/>
    <trip id="bus92" depart="276.00" from="162154108#0" to="-221893257" type="bus"/>
    <trip id="bus93" depart="279.00" from="161392064#1" to="-473684643" type="bus"/>
    <trip id="bus94" depart="282.00" from="161389762" to="327764057#2" type="bus"/>
    <trip id="bus95" depart="285.00" from="-4774365#1" to="161392074" type="bus"/>
    <trip id="bus96" depart="288.00" from="-162154108#1" to="319453543#0" type="bus"/>
    <trip id="bus97" depart="291.00" from="550749977" to="-4902426" type="bus"/>
    <trip id="bus98" depart="294.00" from="-28885040#3" to="4734475#4" type="bus"/>
    <trip id="bus99" depart="297.00" from="4523238" to="4902414#1" type="bus"/>
    <trip id="bus100" depart="300.00" from="-386278897" to="386278913" type="bus"/>
    <trip id="bus101" depart="303.00" from="4902414#3" to="550860119#2" type="bus"/>
    <trip id="bus102" depart="306.00" from="418990606" to="4328546#2" type="bus"/>
    <trip id="bus103" depart="309.00" from="4902441" to="386278897" type="bus"/>
    <trip id="bus104" depart="312.00" from="245553663#9" to="162154108#1" type="bus"/>
    <trip id="bus105" depart="315.00" from="4902441" to="518473673" type="bus"/>
    <trip id="bus106" depart="318.00" from="-28788362" to="550860118#2" type="bus"/>
    <trip id="bus107" depart="321.00" from="462566123" to="550860119#2" type="bus"/>
    <trip id="bus108" depart="324.00" from="-4774365#1" to="4902451#0" type="bus"/>
    <trip id="bus109" depart="327.00" from="-143331549#2" to="550753287#5" type="bus"/>
    <trip id="bus110" depart="330.00" from="245553663#0" to="4902394#7" type="bus"/>
    <trip id="bus111" depart="333.00" from="245553663#0" to="4902440#3" type="bus"/>
    <trip id="bus112" depart="336.00" from="-27840841#1" to="-4902453" type="bus"/>
    <trip id="bus113" depart="339.00" from="4328546#0" to="161392064#3" type="bus"/>
    <trip id="bus114" depart="342.00" from="-473684642#0" to="-28885070#1" type="bus"/>
    <trip id="bus115" depart="345.00" from="245546865" to="4877455" type="bus"/>
    <trip id="bus116" depart="348.00" from="550873590" to="28885040#5" type="bus"/>
    <trip id="bus117" depart="351.00" from="438155977#1-AddedOnRampEdge" to="-340955662" type="bus"/>
    <trip id="bus118" depart="354.00" from="-27840838#0" to="438155977#1" type="bus"/>
    <trip id="bus119" depart="357.00" from="-27570527#4" to="-462566123" type="bus"/>
    <trip id="bus120" depart="360.00" from="96097829#0" to="-28885070#0" type="bus"/>
    <trip id="bus121" depart="363.00" from="473684642#0" to="386278913" type="bus"/>
    <trip id="bus122" depart="366.00" from="249697090#1" to="27570528#3" type="bus"/>
    <trip id="bus123" depart="369.00" from="96097829#0" to="161392064#1" type="bus"/>
    <trip id="bus124" depart="372.00" from="4734474" to="550753287#5" type="bus"/>
    <trip id="bus125" depart="375.00" from="-4774365#1" to="-4902441" type="bus"/>
    <trip id="bus126" depart="378.00" from="4877453" to="4328546#1" type="bus"/>
    <trip id="bus127" depart="381.00" from="344144147#0" to="550745968" type="bus"/>
    <trip id="bus128" depart="384.00" from="327956373#1" to="550712032#1" type="bus"/>
    <trip id="bus129" depart="387.00" from="4734475#1" to="327764059#0" type="bus"/>
    <trip id="bus130" depart="390.00" from="402922224" to="4774365#1" type="bus"/>
    <trip id="bus131" depart="393.00" from="245553663#1" to="-27840840#3" type="bus"/>
    <trip id="bus132" depart="396.00" from="-221893225" to="249870999" type="bus"/>
    <trip id="bus133" depart="399.00" from="550753286" to="96097834" type="bus"/>
    <trip id="bus134" depart="402.00" from="28788370#0" to="438155977#1" type="bus"/>
    <trip id="bus135" depart="405.00" from="245553663#0" to="-28788365#2" type="bus"/>
    <trip id="bus136" depart="408.00" from="-4902451#2" to="550753287#4" type="bus"/>
    <trip id="bus137" depart="411.00" from="4902399" to="319453545#0" type="bus"/>
    <trip id="bus138" depart="414.00" from="96097794" to="4559084" type="bus"/>
    <trip id="bus139" depart="417.00" from="27570527#4" to="247833371#0" type="bus"/>
    <trip id="bus140" depart="420.00" from="4734490" to="-4902436#0" type="bus"/>
    <trip id="bus141" depart="423.00" from="-28885040#0" to="550867442#2" type="bus"/>
    <trip id="bus142" depart="426.00" from="-386114209" to="319453545#0" type="bus"/>
    <trip id="bus143" depart="429.00" from="549939609#0" to="28788370#0" type="bus"/>
    <trip id="bus144" depart="432.00" from="-4902451#0" to="161389765" type="bus"/>
    <trip id="bus145" depart="435.00" from="245553663#0" to="-462566123" type="bus"/>
    <trip id="bus146" depart="438.00" from="27570527#1" to="162154108#1" type="bus"/>
    <trip id="bus147" depart="441.00" from="-39368524#2" to="4774365#1" type="bus"/>
    <trip id="bus148" depart="444.00" from="4734475#0" to="4774404" type="bus"/>
    <trip id="bus149" depart="447.00" from="344144147#0" to="-462566123" type="bus"/>
    <trip id="bus150" depart="450.00" from="4902441" to="518474788" type="bus"/>
    <trip id="bus151" depart="453.00" from="143331549#0" to="161392068" type="bus"/>
    <trip id="bus152" depart="456.00" from="-27803780#0" to="438155977#1" type="bus"/>
    <trip id="bus153" depart="459.00" from="549939609#0" to="96097829#2" type="bus"/>
    <trip id="bus154" depart="462.00" from="-27840841#1" to="438155977#1" type="bus"/>
    <trip id="bus155" depart="465.00" from="-4902392" to="550712033" type="bus"/>
    <trip id="bus156" depart="468.00" from="-4902394#7" to="-550757841" type="bus"/>
    <trip id="bus157" depart="471.00" from="327764057#1" to="249697090#2" type="bus"/>
    <trip id="bus158" depart="474.00" from="-4902394#5" to="518473678" type="bus"/>
    <trip id="bus159" depart="477.00" from="96097829#0" to="161389762" type="bus"/>
    <trip id="bus160" depart="480.00" from="39368524#2" to="4902391" type="bus"/>
    <trip id="bus161" depart="483.00" from="245553663#3" to="550712032#0" type="bus"/>
    <trip id="bus162" depart="486.00" from="28885070#0" to="162154113" type="bus"/>
    <trip id="bus163" depart="489.00" from="327764057#0" to="402922224" type="bus"/>
    <trip id="bus164" depart="492.00" from="344144147#0" to="518473677" type="bus"/>
    <trip id="bus165" depart="495.00" from="162154108#0" to="340955664" type="bus"/>
    <trip id="bus166" depart="498.00" from="-386278913" to="-39368522#0" type="bus"/>
    <trip id="bus167" depart="501.00" from="27570527#2" to="550867442#2" type="bus"/>
    <trip id="bus168" depart="504.00" from="27467656" to="550712034" type="bus"/>
    <trip id="bus169" depart="507.00" from="4902421" to="-550865716" type="bus"/>
    <trip id="bus170" depart="510.00" from="4559381" to="8148885#0" type="bus"/>
    <trip id="bus171" depart="513.00" from="550860118#2" to="4902451#2" type="bus"/>
    <trip id="bus172" depart="516.00" from="-550867442#2" to="4902440#1" type="bus"/>
    <trip id="bus173" depart="519.00" from="27840840#1" to="550712035" type="bus"/>
    <trip id="bus174" depart="522.00" from="4902418#1" to="550712032#1" type="bus"/>
    <trip id="bus175" depart="525.00" from="-28885070#1" to="550753287#5" type="bus"/>
    <trip id="bus176" depart="528.00" from="550745968" to="249697090#2" type="bus"/>
    <trip id="bus177" depart="531.00" from="4734475#0" to="-462566123" type="bus"/>
    <trip id="bus178" depart="534.00" from="245553663#0" to="247833369#1" type="bus"/>
    <trip id="bus179" depart="537.00" from="-550867442#2" to="27570527#3" type="bus"/>
    <trip id="bus180" depart="540.00" from="-27840841#1" to="473691589" type="bus"/>
    <trip id="bus181" depart="543.00" from="-143331549#1" to="518474788" type="bus"/>
    <trip id="bus182" depart="546.00" from="-327764057#2" to="-39368522#0" type="bus"/>
    <trip id="bus183" depart="549.00" from="344144147#0" to="-221893257" type="bus"/>
    <trip id="bus184" depart="552.00" from="-162154108#1" to="4902440#1" type="bus"/>
    <trip id="bus185" depart="555.00" from="-4902377#0" to="161392070" type="bus"/>
    <trip id="bus186" depart="558.00" from="-386278913" to="-27490680" type="bus"/>
    <trip id="bus187" depart="561.00" from="475330829" to="28788384" type="bus"/>
    <trip id="bus188" depart="564.00" from="249697090#1" to="27570528#4" type="bus"/>
    <trip id="bus189" depart="567.00" from="-27570528#4" to="143331549#2" type="bus"/>
    <trip id="bus190" depart="570.00" from="-518474575" to="-327764057#1" type="bus"/>
    <trip id="bus191" depart="573.00" from="28885055#1" to="162154113" type="bus"/>
    <trip id="bus192" depart="576.00" from="344144147#0" to="-4902453" type="bus"/>
    <trip id="bus193" depart="579.00" from="-550867442#2" to="4902394#7" type="bus"/>
    <trip id="bus194" depart="582.00" from="4902440#3" to="550867442#2" type="bus"/>
    <trip id="bus195" depart="585.00" from="4902414#2" to="39368522#5" type="bus"/>
    <trip id="bus196" depart="588.00" from="549939609#3" to="518473674" type="bus"/>
    <trip id="bus197" depart="591.00" from="-549928646#0" to="-162043157#1" type="bus"/>
    <trip id="bus198" depart="594.00" from="161392062" to="-39368522#5" type="bus"/>
    <trip id="bus199" depart="597.00" from="4734475#0" to="-4902447" type="bus"/>
    <trip id="bus200" depart="600.00" from="-550867442#2" to="4877450" type="bus"/>
    <trip id="bus201" depart="603.00" from="473691590#1" to="327764058" type="bus"/>
    <trip id="bus202" depart="606.00" from="39368522#0" to="143331549#2" type="bus"/>
    <trip id="bus203" depart="609.00" from="344144147#1" to="27840841#1" type="bus"/>
    <trip id="bus204" depart="612.00" from="179109642#0" to="143331549#2" type="bus"/>
    <trip id="bus205" depart="615.00" from="4734476#0" to="-28885070#0" type="bus"/>
    <trip id="bus206" depart="618.00" from="161392081" to="15968349" type="bus"/>
    <trip id="bus207" depart="621.00" from="39368522#4" to="27840841#1" type="bus"/>
    <trip id="bus208" depart="624.00" from="-386278913" to="245234799#1" type="bus"/>
    <trip id="bus209" depart="627.00" from="-27803780#2" to="518474788" type="bus"/>
    <trip id="bus210" depart="630.00" from="549939609#0" to="518474788" type="bus"/>
    <trip id="bus211" depart="633.00" from="549928642#2" to="162154113" type="bus"/>
    <trip id="bus212" depart="636.00" from="4902408" to="-548651990#0" type="bus"/>
    <trip id="bus213" depart="639.00" from="344144147#0" to="-4902394#0" type="bus"/>
    <trip id="bus214" depart="642.00" from="473684643" to="28788361#0" type="bus"/>
    <trip id="bus215" depart="645.00" from="4734476#0" to="4902394#7" type="bus"/>
    <trip id="bus216" depart="648.00" from="27840840#3" to="438155977#1" type="bus"/>
    <trip id="bus217" depart="651.00" from="-511815820" to="143331549#2" type="bus"/>
    <trip id="bus218" depart="654.00" from="247833367" to="27803780#2" type="bus"/>
    <trip id="bus219" depart="657.00" from="-549928648#1" to="4806304#1" type="bus"/>
    <trip id="bus220" depart="660.00" from="162154108#0" to="28885040#5" type="bus"/>
    <trip id="bus221" depart="663.00" from="-386114209" to="221893225" type="bus"/>
    <trip id="bus222" depart="666.00" from="-4902451#0" to="247833369#1" type="bus"/>
    <trip id="bus223" depart="669.00" from="4559381" to="4559084" type="bus"/>
    <trip id="bus224" depart="672.00" from="-327764057#1" to="162154113" type="bus"/>
    <trip id="bus225" depart="675.00" from="550860118#3" to="4774365#1" type="bus"/>
    <trip id="bus226" depart="678.00" from="161389761#2" to="386278897" type="bus"/>
    <trip id="bus227" depart="681.00" from="4902399" to="4734475#4" type="bus"/>
    <trip id="bus228" depart="684.00" from="39368524#2" to="28885040#5" type="bus"/>
    <trip id="bus229" depart="687.00" from="550747490" to="27840841#1" type="bus"/>
    <trip id="bus230" depart="690.00" from="-8154721#1" to="-473684643" type="bus"/>
    <trip id="bus231" depart="693.00" from="4902394#3" to="-473684643" type="bus"/>
    <trip id="bus232" depart="696.00" from="162154108#0" to="247833370#1" type="bus"/>
    <trip id="bus233" depart="699.00" from="179109642#1" to="15968349" type="bus"/>
    <trip id="bus234" depart="702.00" from="4902433" to="221893217#4" type="bus"/>
    <trip id="bus235" depart="705.00" from="221893285#0" to="15968349" type="bus"/>
    <trip id="bus236" depart="708.00" from="143331549#1" to="28885040#5" type="bus"/>
    <trip id="bus237" depart="711.00" from="4902391" to="-39368522#2" type="bus"/>
    <trip id="bus238" depart="714.00" from="4902441" to="15968349" type="bus"/>
    <trip id="bus239" depart="717.00" from="473684641#1" to="143331549#2" type="bus"/>
    <trip id="bus240" depart="720.00" from="162154108#0" to="550753287#5" type="bus"/>
    <trip id="bus241" depart="723.00" from="-4774404" to="27570528#3" type="bus"/>
    <trip id="bus242" depart="726.00" from="-4877455" to="96097794" type="bus"/>
    <trip id="bus243" depart="729.00" from="-8154721#0" to="-221893257" type="bus"/>
    <trip id="bus244" depart="732.00" from="4902421" to="4774365#1" type="bus"/>
    <trip id="bus245" depart="735.00" from="4902431" to="319453544" type="bus"/>
    <trip id="bus246" depart="738.00" from="4559381" to="28885040#5" type="bus"/>
    <trip id="bus247" depart="741.00" from="549928642#1" to="386278897" type="bus"/>
    <trip id="bus248" depart="744.00" from="-162154108#1" to="28885040#0" type="bus"/>
    <trip id="bus249" depart="747.00" from="-4902394#0" to="-39368524#0" type="bus"/>
    <trip id="bus250" depart="750.00" from="-4902392" to="249697090#0" type="bus"/>
    <trip id="bus251" depart="753.00" from="4902370" to="162154108#1" type="bus"/>
    <trip id="bus252" depart="756.00" from="462566123" to="438155977#0" type="bus"/>
    <trip id="bus253" depart="759.00" from="473684643" to="4902374#0" type="bus"/>
    <trip id="bus254" depart="762.00" from="-386278913" to="4902421" type="bus"/>
    <trip id="bus255" depart="765.00" from="221893285#0" to="4774365#0" type="bus"/>
    <trip id="bus256" depart="768.00" from="221893257" to="161389761#2" type="bus"/>
    <trip id="bus257" depart="771.00" from="-229481708#0" to="-4902426" type="bus"/>
    <trip id="bus258" depart="774.00" from="4734475#4" to="-4902414#3" type="bus"/>
    <trip id="bus259" depart="777.00" from="4902453" to="161392075#2" type="bus"/>
    <trip id="bus260" depart="780.00" from="245553663#3" to="550735549" type="bus"/>
    <trip id="bus261" depart="783.00" from="247833371#1-AddedOnRampEdge" to="4902451#2" type="bus"/>
    <trip id="bus262" depart="786.00" from="4559381" to="-27840840#2" type="bus"/>
    <trip id="bus263" depart="789.00" from="28885070#0" to="518473673" type="bus"/>
    <trip id="bus264" depart="792.00" from="27570528#1" to="161392069#1" type="bus"/>
    <trip id="bus265" depart="795.00" from="-518473674" to="386278913" type="bus"/>
    <trip id="bus266" depart="798.00" from="511815820" to="162154113" type="bus"/>
    <trip id="bus267" depart="801.00" from="96097829#2" to="143331549#2" type="bus"/>
    <trip id="bus268" depart="804.00" from="8148885#1" to="550753287#5" type="bus"/>
    <trip id="bus269" depart="807.00" from="-27840838#0" to="438155977#1-AddedOnRampEdge" type="bus"/>
    <trip id="bus270" depart="810.00" from="-550867442#0" to="4902451#2" type="bus"/>
    <trip id="bus271" depart="813.00" from="39368522#5" to="550753287#5" type="bus"/>
    <trip id="bus272" depart="816.00" from="4806303" to="-221893285#0" type="bus"/>
    <trip id="bus273" depart="819.00" from="39368522#5" to="550753287#5" type="bus"/>
    <trip id="bus274" depart="822.00" from="-550867442#2" to="4902399" type="bus"/>
    <trip id="bus275" depart="825.00" from="161389756#1" to="327764057#2" type="bus"/>
    <trip id="bus276" depart="828.00" from="-4902451#1" to="550712036#0" type="bus"/>
    <trip id="bus277" depart="831.00" from="245553663#0" to="-327764057#1" type="bus"/>
    <trip id="bus278" depart="834.00" from="-27840840#4" to="473684642#1" type="bus"/>
    <trip id="bus279" depart="837.00" from="4902441" to="161392068" type="bus"/>
    <trip id="bus280" depart="840.00" from="-550712033" to="-27570528#3" type="bus"/>
    <trip id="bus281" depart="843.00" from="4902441" to="4806304#0" type="bus"/>
    <trip id="bus282" depart="846.00" from="549939609#2" to="438155977#1-AddedOnRampEdge" type="bus"/>
    <trip id="bus283" depart="849.00" from="-179109642#2" to="327754983" type="bus"/>
    <trip id="bus284" depart="852.00" from="-550867442#2" to="4902451#2" type="bus"/>
    <trip id="bus285" depart="855.00" from="96097834" to="4877450" type="bus"/>
    <trip id="bus286" depart="858.00" from="27467656" to="4902414#3" type="bus"/>
    <trip id="bus287" depart="861.00" from="4902418#1" to="-27840838#1" type="bus"/>
    <trip id="bus288" depart="864.00" from="-340955662" to="-473684643" type="bus"/>
    <trip id="bus289" depart="867.00" from="-4902394#7" to="438155977#1" type="bus"/>
    <trip id="bus290" depart="870.00" from="344144147#0" to="4877450" type="bus"/>
    <trip id="bus291" depart="873.00" from="245553663#4" to="4328546#2" type="bus"/>
    <trip id="bus292" depart="876.00" from="162154108#0" to="27840841#1" type="bus"/>
    <trip id="bus293" depart="879.00" from="-473691590#1" to="386278913" type="bus"/>
    <trip id="bus294" depart="882.00" from="-550867442#2" to="327764057#2" type="bus"/>
    <trip id="bus295" depart="885.00" from="-27840841#1" to="161389761#0" type="bus"/>
    <trip id="bus296" depart="888.00" from="28788365#1" to="161392067" type="bus"/>
    <trip id="bus297" depart="891.00" from="473684641#1" to="28788362" type="bus"/>
    <trip id="bus298" depart="894.00" from="247833370#1" to="28788365#0" type="bus"/>
    <trip id="bus299" depart="897.00" from="550860118#2" to="-4902447" type="bus"/>
    <trip id="bus300" depart="900.00" from="245553663#2" to="549928648#2" type="bus"/>
    <trip id="bus301" depart="903.00" from="344144147#0" to="27840840#1" type="bus"/>
    <trip id="bus302" depart="906.00" from="27570527#0" to="518473678" type="bus"/>
    <trip id="bus303" depart="909.00" from="4559381" to="4902399" type="bus"/>
    <trip id="bus304" depart="912.00" from="-550867442#2" to="245553663#8" type="bus"/>
    <trip id="bus305" depart="915.00" from="-4902436#1" to="86936182" type="bus"/>
    <trip id="bus306" depart="918.00" from="550867442#1" to="245553663#3" type="bus"/>
    <trip id="bus307" depart="921.00" from="4902374#2" to="162043157#0" type="bus"/>
    <trip id="bus308" depart="924.00" from="550712036#2" to="4902394#5" type="bus"/>
    <trip id="bus309" depart="927.00" from="245553663#5" to="-27467656" type="bus"/>
    <trip id="bus310" depart="930.00" from="-386114209" to="86936182" type="bus"/>
    <trip id="bus311" depart="933.00" from="4806304#0" to="4902418#3" type="bus"/>
    <trip id="bus312" depart="936.00" from="-327764058" to="473691590#0" type="bus"/>
    <trip id="bus313" depart="939.00" from="161392065" to="4902418#2" type="bus"/>
    <trip id="bus314" depart="942.00" from="-386278913" to="550712033" type="bus"/>
    <trip id="bus315" depart="945.00" from="-549928648#0" to="162154113" type="bus"/>
    <trip id="bus316" depart="948.00" from="473684643" to="4877450" type="bus"/>
    <trip id="bus317" depart="951.00" from="327764059#1" to="475330829" type="bus"/>
    <trip id="bus318" depart="954.00" from="-4877450" to="550867442#2" type="bus"/>
    <trip id="bus319" depart="957.00" from="550712034" to="4902444" type="bus"/>
    <trip id="bus320" depart="960.00" from="-4902451#2" to="161389756#1" type="bus"/>
    <trip id="bus321" depart="963.00" from="245234799#4" to="-4902433" type="bus"/>
    <trip id="bus322" depart="966.00" from="-4902394#0" to="4734475#4" type="bus"/>
    <trip id="bus323" depart="969.00" from="27467656" to="4523238" type="bus"/>
    <trip id="bus324" depart="972.00" from="-27570527#3" to="247833371#0" type="bus"/>
    <trip id="bus325" depart="975.00" from="4559381" to="550749977" type="bus"/>
    <trip id="bus326" depart="978.00" from="549939609#0" to="96097829#2" type="bus"/>
    <trip id="bus327" depart="981.00" from="161389764" to="28788361#1" type="bus"/>
    <trip id="bus328" depart="984.00" from="-4902451#1" to="86936182" type="bus"/>
    <trip id="bus329" depart="987.00" from="221893285#0" to="-4902418#0" type="bus"/>
    <trip id="bus330" depart="990.00" from="4734487" to="-4902392" type="bus"/>
    <trip id="bus331" depart="993.00" from="-4902414#1" to="-548651990#0" type="bus"/>
    <trip id="bus332" depart="996.00" from="-511815820" to="4877450" type="bus"/>
    <trip id="bus333" depart="999.00" from="4328546#1" to="-27570528#1" type="bus"/>
    <trip id="bus334" depart="1002.00" from="549928648#3" to="161389762" type="bus"/>
    <trip id="bus335" depart="1005.00" from="319447428#2" to="-4902453" type="bus"/>
    <trip id="bus336" depart="1008.00" from="-28885040#5" to="-462566123" type="bus"/>
    <trip id="bus337" depart="1011.00" from="4734475#0" to="386278913" type="bus"/>
    <trip id="bus338" depart="1014.00" from="380438949#0" to="-4902451#1" type="bus"/>
    <trip id="bus339" depart="1017.00" from="249697090#0" to="-28885070#0" type="bus"/>
    <trip id="bus340" depart="1020.00" from="247833370#0" to="27570528#4" type="bus"/>
    <trip id="bus341" depart="1023.00" from="-27570528#4" to="86936182" type="bus"/>
    <trip id="bus342" depart="1026.00" from="550712035" to="-27803780#2" type="bus"/>
    <trip id="bus343" depart="1029.00" from="473684642#0" to="550873590" type="bus"/>
    <trip id="bus344" depart="1032.00" from="96097829#0" to="245234799#3" type="bus"/>
    <trip id="bus345" depart="1035.00" from="511815820" to="550712032#1" type="bus"/>
    <trip id="bus346" depart="1038.00" from="-8154721#1" to="473684642#1" type="bus"/>