<?xml version="1.0"?>
<!-- generated on 2018-01-15 20:03:29.435207 by $Id: randomTrips.py 23999 2017-04-21 09:04:47Z behrisch $
  options: <doubleminus>seed 42 <doubleminus>vehicle-class passenger <doubleminus>min-distance 1000 <doubleminus>fringe-factor 5 <doubleminus>prefix pas -n /media/jefferson/Dados/workspace/gtracker/vanet/sp/sp.net.xml -r /media/jefferson/Dados/workspace/gtracker/vanet/sp/sp.passenger.rou.xml -p 10 -e 3600 -o /media/jefferson/Dados/workspace/gtracker/vanet/sp/sp.passenger.trips.xml
-->
<routes xmlns:xsi="http://www.w3.org/2001/XMLSchema-instance" xsi:noNamespaceSchemaLocation="http://sumo.dlr.de/xsd/routes_file.xsd">
    <vType id="passenger" vClass="passenger" />
    <trip id="pas0" depart="0.00" from="462566123" to="4734490" type="passenger"/>
    <trip id="pas1" depart="10.00" from="-221893217#0" to="-4902418#4" type="passenger"/>
    <trip id="pas2" depart="20.00" from="4902394#3" to="-162043157#1" type="passenger"/>
    <trip id="pas3" depart="30.00" from="4902394#1" to="4774365#1" type="passenger"/>
    <trip id="pas4" depart="40.00" from="-549928646#1" to="-4734472" type="passenger"/>
    <trip id="pas5" depart="50.00" from="550753287#3" to="161392081" type="passenger"/>
    <trip id="pas6" depart="60.00" from="4902394#2" to="4877455" type="passenger"/>
    <trip id="pas7" depart="70.00" from="27570527#0" to="550867442#2" type="passenger"/>
    <trip id="pas8" depart="80.00" from="-8154723" to="319453545#1" type="passenger"/>
    <trip id="pas9" depart="90.00" from="4902421" to="39368524#2" type="passenger"/>
    <trip id="pas10" depart="100.00" from="4902453" to="329013842" type="passenger"/>
    <trip id="pas11" depart="110.00" from="-4877450" to="161389758" type="passenger"/>
    <trip id="pas12" depart="120.00" from="-28788361#0" to="15968284" type="passenger"/>
    <trip id="pas13" depart="130.00" from="-550867442#2" to="-4902441" type="passenger"/>
    <trip id="pas14" depart="140.00" from="-386278913" to="4877455" type="passenger"/>
    <trip id="pas15" depart="150.00" from="96097829#0" to="4559005#0" type="passenger"/>
    <trip id="pas16" depart="160.00" from="-4877450" to="-221893257" type="passenger"/>
    <trip id="pas17" depart="170.00" from="-4774365#1" to="550753287#2" type="passenger"/>
    <trip id="pas18" depart="180.00" from="518473679" to="161392068" type="passenger"/>
    <trip id="pas19" depart="190.00" from="344144147#0" to="245553663#4" type="passenger"/>
    <trip id="pas20" depart="200.00" from="161392059#0" to="-4902453" type="passenger"/>
    <trip id="pas21" depart="210.00" from="96097829#2" to="28788370#1" type="passenger"/>
    <trip id="pas22" depart="220.00" from="-28788365#2" to="4328546#2" type="passenger"/>
    <trip id="pas23" depart="230.00" from="96097829#1" to="28885055#1" type="passenger"/>
    <trip id="pas24" depart="240.00" from="28885070#1" to="-462566123" type="passenger"/>
    <trip id="pas25" depart="250.00" from="475330829" to="28885070#1" type="passenger"/>
    <trip id="pas26" depart="260.00" from="518473680" to="550753287#5" type="passenger"/>
    <trip id="pas27" depart="270.00" from="473684642#1" to="-341224416" type="passenger"/>
    <trip id="pas28" depart="280.00" from="161392075#1" to="-4902441" type="passenger"/>
    <trip id="pas29" depart="290.00" from="27570527#2" to="4877455" type="passenger"/>
    <trip id="pas30" depart="300.00" from="96097829#0" to="4559074#3" type="passenger"/>
    <trip id="pas31" depart="310.00" from="162154108#0" to="28885040#2" type="passenger"/>
    <trip id="pas32" depart="320.00" from="-548651990#1" to="386114209" type="passenger"/>
    <trip id="pas33" depart="330.00" from="-4877455" to="-4902453" type="passenger"/>
    <trip id="pas34" depart="340.00" from="-27803780#2" to="438155977#1" type="passenger"/>
    <trip id="pas35" depart="350.00" from="-4877450" to="550712032#1" type="passenger"/>
    <trip id="pas36" depart="360.00" from="-4902377#0" to="4734475#3" type="passenger"/>
    <trip id="pas37" depart="370.00" from="229481708#2" to="4902433" type="passenger"/>
    <trip id="pas38" depart="380.00" from="-27840841#1" to="249870999" type="passenger"/>
    <trip id="pas39" depart="390.00" from="462564634" to="4734487" type="passenger"/>
    <trip id="pas40" depart="400.00" from="161392064#0" to="162043157#0" type="passenger"/>
    <trip id="pas41" depart="410.00" from="4902453" to="-550712033" type="passenger"/>
    <trip id="pas42" depart="420.00" from="-4902394#5" to="550732345" type="passenger"/>
    <trip id="pas43" depart="430.00" from="4902441" to="-473691590#0" type="passenger"/>
    <trip id="pas44" depart="440.00" from="245546867" to="-4902444" type="passenger"/>
    <trip id="pas45" depart="450.00" from="550753287#4" to="96097794" type="passenger"/>
    <trip id="pas46" depart="460.00" from="-341224416" to="161389762-AddedOnRampEdge" type="passenger"/>
    <trip id="pas47" depart="470.00" from="-386114209" to="550860118#2" type="passenger"/>
    <trip id="pas48" depart="480.00" from="28885040#2" to="4734488" type="passenger"/>
    <trip id="pas49" depart="490.00" from="-4877455" to="-28885070#1" type="passenger"/>
    <trip id="pas50" depart="500.00" from="4902414#1" to="161389765" type="passenger"/>
    <trip id="pas51" depart="510.00" from="380438949#0" to="550753287#0" type="passenger"/>
    <trip id="pas52" depart="520.00" from="-28788365#0" to="323823408" type="passenger"/>
    <trip id="pas53" depart="530.00" from="327754983" to="-8154721#1" type="passenger"/>
    <trip id="pas54" depart="540.00" from="245553663#0" to="550712032#1" type="passenger"/>
    <trip id="pas55" depart="550.00" from="161392075#1" to="143331549#2" type="passenger"/>
    <trip id="pas56" depart="560.00" from="161392080" to="-162154108#0" type="passenger"/>
    <trip id="pas57" depart="570.00" from="4902431" to="380438949#0" type="passenger"/>
    <trip id="pas58" depart="580.00" from="4902374#3" to="518474788" type="passenger"/>
    <trip id="pas59" depart="590.00" from="549915319" to="-4902441" type="passenger"/>
    <trip id="pas60" depart="600.00" from="4902453" to="550867442#2" type="passenger"/>
    <trip id="pas61" depart="610.00" from="-4877450" to="511815819" type="passenger"/>
    <trip id="pas62" depart="620.00" from="550712036#2" to="-28885070#0" type="passenger"/>
    <trip id="pas63" depart="630.00" from="550860119#0" to="-4902394#1" type="passenger"/>
    <trip id="pas64" depart="640.00" from="-28788365#1" to="249871000" type="passenger"/>
    <trip id="pas65" depart="650.00" from="161389756#0" to="327956374" type="passenger"/>
    <trip id="pas66" depart="660.00" from="-4902394#7" to="4774404" type="passenger"/>
    <trip id="pas67" depart="670.00" from="27570527#1" to="4877450" type="passenger"/>
    <trip id="pas68" depart="680.00" from="-550867442#1" to="-27840836" type="passenger"/>
    <trip id="pas69" depart="690.00" from="161392064#0" to="161389762-AddedOnRampEdge" type="passenger"/>
    <trip id="pas70" depart="700.00" from="-143331549#0" to="161389756#0" type="passenger"/>
    <trip id="pas71" depart="710.00" from="344144147#0" to="27840838#0" type="passenger"/>
    <trip id="pas72" depart="720.00" from="39368522#0" to="-4902453" type="passenger"/>
    <trip id="pas73" depart="730.00" from="4902441" to="-27840838#1" type="passenger"/>
    <trip id="pas74" depart="740.00" from="245553663#1" to="-549928646#1" type="passenger"/>
    <trip id="pas75" depart="750.00" from="4734475#2" to="4902416#0" type="passenger"/>
    <trip id="pas76" depart="760.00" from="-28788365#0" to="249697090#2" type="passenger"/>
    <trip id="pas77" depart="770.00" from="-386278913" to="550860118#0" type="passenger"/>
    <trip id="pas78" depart="780.00" from="-4902394#5" to="518473678" type="passenger"/>
    <trip id="pas79" depart="790.00" from="39368522#0" to="86936182" type="passenger"/>
    <trip id="pas80" depart="800.00" from="28885040#2" to="550753287#5" type="passenger"/>
    <trip id="pas81" depart="810.00" from="4902421" to="319453543#6" type="passenger"/>
    <trip id="pas82" depart="820.00" from="-4902394#3" to="438155977#1-AddedOnRampEdge" type="passenger"/>
    <trip id="pas83" depart="830.00" from="473684642#0" to="28885040#4" type="passenger"/>
    <trip id="pas84" depart="840.00" from="319453543#6" to="143331549#2" type="passenger"/>
    <trip id="pas85" depart="850.00" from="-4902418#4" to="161392068" type="passenger"/>
    <trip id="pas86" depart="860.00" from="27570527#2" to="-39368522#2" type="passenger"/>
    <trip id="pas87" depart="870.00" from="-4877455" to="475330829" type="passenger"/>
    <trip id="pas88" depart="880.00" from="161392070" to="-4902441" type="passenger"/>
    <trip id="pas89" depart="890.00" from="161392074" to="550712032#1" type="passenger"/>
    <trip id="pas90" depart="900.00" from="-550735550" to="4902394#4" type="passenger"/>
    <trip id="pas91" depart="910.00" from="-4774404" to="-4902453" type="passenger"/>
    <trip id="pas92" depart="920.00" from="162154108#0" to="-221893257" type="passenger"/>
    <trip id="pas93" depart="930.00" from="161392064#1" to="-473684643" type="passenger"/>
    <trip id="pas94" depart="940.00" from="161389762" to="327764057#2" type="passenger"/>
    <trip id="pas95" depart="950.00" from="-4774365#1" to="161392074" type="passenger"/>
    <trip id="pas96" depart="960.00" from="-162154108#1" to="319453543#0" type="passenger"/>
    <trip id="pas97" depart="970.00" from="550749977" to="-4902426" type="passenger"/>
    <trip id="pas98" depart="980.00" from="-28885040#3" to="4734475#4" type="passenger"/>
    <trip id="pas99" depart="990.00" from="4523238" to="4902414#1" type="passenger"/>
    <trip id="pas100" depart="1000.00" from="-386278897" to="386278913" type="passenger"/>
    <trip id="pas101" depart="1010.00" from="4902414#3" to="550860119#2" type="passenger"/>
    <trip id="pas102" depart="1020.00" from="418990606" to="4328546#2" type="passenger"/>
    <trip id="pas103" depart="1030.00" from="4902441" to="386278897" type="passenger"/>
    <trip id="pas104" depart="1040.00" from="245553663#9" to="162154108#1" type="passenger"/>
    <trip id="pas105" depart="1050.00" from="4902441" to="518473673" type="passenger"/>
    <trip id="pas106" depart="1060.00" from="-28788362" to="550860118#2" type="passenger"/>
    <trip id="pas107" depart="1070.00" from="462566123" to="550860119#2" type="passenger"/>
    <trip id="pas108" depart="1080.00" from="-4774365#1" to="4902451#0" type="passenger"/>
    <trip id="pas109" depart="1090.00" from="-143331549#2" to="550753287#5" type="passenger"/>
    <trip id="pas110" depart="1100.00" from="245553663#0" to="4902394#7" type="passenger"/>
    <trip id="pas111" depart="1110.00" from="245553663#0" to="4902440#3" type="passenger"/>
    <trip id="pas112" depart="1120.00" from="-27840841#1" to="-4902453" type="passenger"/>
    <trip id="pas113" depart="1130.00" from="4328546#0" to="161392064#3" type="passenger"/>
    <trip id="pas114" depart="1140.00" from="-473684642#0" to="-28885070#1" type="passenger"/>
    <trip id="pas115" depart="1150.00" from="245546865" to="4877455" type="passenger"/>
    <trip id="pas116" depart="1160.00" from="550873590" to="28885040#5" type="passenger"/>
    <trip id="pas117" depart="1170.00" from="438155977#1-AddedOnRampEdge" to="-340955662" type="passenger"/>
    <trip id="pas118" depart="1180.00" from="-27840838#0" to="438155977#1" type="passenger"/>
    <trip id="pas119" depart="1190.00" from="-27570527#4" to="-462566123" type="passenger"/>
    <trip id="pas120" depart="1200.00" from="96097829#0" to="-28885070#0" type="passenger"/>
    <trip id="pas121" depart="1210.00" from="473684642#0" to="386278913" type="passenger"/>
    <trip id="pas122" depart="1220.00" from="249697090#1" to="27570528#3" type="passenger"/>
    <trip id="pas123" depart="1230.00" from="96097829#0" to="161392064#1" type="passenger"/>
    <trip id="pas124" depart="1240.00" from="4734474" to="550753287#5" type="passenger"/>
    <trip id="pas125" depart="1250.00" from="-4774365#1" to="-4902441" type="passenger"/>
    <trip id="pas126" depart="1260.00" from="4877453" to="4328546#1" type="passenger"/>
    <trip id="pas127" depart="1270.00" from="344144147#0" to="550745968" type="passenger"/>
    <trip id="pas128" depart="1280.00" from="327956373#1" to="550712032#1" type="passenger"/>
    <trip id="pas129" depart="1290.00" from="4734475#1" to="327764059#0" type="passenger"/>
    <trip id="pas130" depart="1300.00" from="402922224" to="4774365#1" type="passenger"/>
    <trip id="pas131" depart="1310.00" from="245553663#1" to="-27840840#3" type="passenger"/>
    <trip id="pas132" depart="1320.00" from="-221893225" to="249870999" type="passenger"/>
    <trip id="pas133" depart="1330.00" from="550753286" to="96097834" type="passenger"/>
    <trip id="pas134" depart="1340.00" from="28788370#0" to="438155977#1" type="passenger"/>
    <trip id="pas135" depart="1350.00" from="245553663#0" to="-28788365#2" type="passenger"/>
    <trip id="pas136" depart="1360.00" from="-4902451#2" to="550753287#4" type="passenger"/>
    <trip id="pas137" depart="1370.00" from="4902399" to="319453545#0" type="passenger"/>
    <trip id="pas138" depart="1380.00" from="96097794" to="4559084" type="passenger"/>
    <trip id="pas139" depart="1390.00" from="27570527#4" to="247833371#0" type="passenger"/>
    <trip id="pas140" depart="1400.00" from="4734490" to="-4902436#0" type="passenger"/>
    <trip id="pas141" depart="1410.00" from="-28885040#0" to="550867442#2" type="passenger"/>
    <trip id="pas142" depart="1420.00" from="-386114209" to="319453545#0" type="passenger"/>
    <trip id="pas143" depart="1430.00" from="549939609#0" to="28788370#0" type="passenger"/>
    <trip id="pas144" depart="1440.00" from="-4902451#0" to="161389765" type="passenger"/>
    <trip id="pas145" depart="1450.00" from="245553663#0" to="-462566123" type="passenger"/>
    <trip id="pas146" depart="1460.00" from="27570527#1" to="162154108#1" type="passenger"/>
    <trip id="pas147" depart="1470.00" from="-39368524#2" to="4774365#1" type="passenger"/>
    <trip id="pas148" depart="1480.00" from="4734475#0" to="4774404" type="passenger"/>
    <trip id="pas149" depart="1490.00" from="344144147#0" to="-462566123" type="passenger"/>
    <trip id="pas150" depart="1500.00" from="4902441" to="518474788" type="passenger"/>
    <trip id="pas151" depart="1510.00" from="143331549#0" to="161392068" type="passenger"/>
    <trip id="pas152" depart="1520.00" from="-27803780#0" to="438155977#1" type="passenger"/>
    <trip id="pas153" depart="1530.00" from="549939609#0" to="96097829#2" type="passenger"/>
    <trip id="pas154" depart="1540.00" from="-27840841#1" to="438155977#1" type="passenger"/>
    <trip id="pas155" depart="1550.00" from="-4902392" to="550712033" type="passenger"/>
    <trip id="pas156" depart="1560.00" from="-4902394#7" to="-550757841" type="passenger"/>
    <trip id="pas157" depart="1570.00" from="327764057#1" to="249697090#2" type="passenger"/>
    <trip id="pas158" depart="1580.00" from="-4902394#5" to="518473678" type="passenger"/>
    <trip id="pas159" depart="1590.00" from="96097829#0" to="161389762" type="passenger"/>
    <trip id="pas160" depart="1600.00" from="39368524#2" to="4902391" type="passenger"/>
    <trip id="pas161" depart="1610.00" from="245553663#3" to="550712032#0" type="passenger"/>
    <trip id="pas162" depart="1620.00" from="28885070#0" to="162154113" type="passenger"/>
    <trip id="pas163" depart="1630.00" from="327764057#0" to="402922224" type="passenger"/>
    <trip id="pas164" depart="1640.00" from="344144147#0" to="518473677" type="passenger"/>
    <trip id="pas165" depart="1650.00" from="162154108#0" to="340955664" type="passenger"/>
    <trip id="pas166" depart="1660.00" from="-386278913" to="-39368522#0" type="passenger"/>
    <trip id="pas167" depart="1670.00" from="27570527#2" to="550867442#2" type="passenger"/>
    <trip id="pas168" depart="1680.00" from="27467656" to="550712034" type="passenger"/>
    <trip id="pas169" depart="1690.00" from="4902421" to="-550865716" type="passenger"/>
    <trip id="pas170" depart="1700.00" from="4559381" to="8148885#0" type="passenger"/>
    <trip id="pas171" depart="1710.00" from="550860118#2" to="4902451#2" type="passenger"/>
    <trip id="pas172" depart="1720.00" from="-550867442#2" to="4902440#1" type="passenger"/>
    <trip id="pas173" depart="1730.00" from="27840840#1" to="550712035" type="passenger"/>
    <trip id="pas174" depart="1740.00" from="4902418#1" to="550712032#1" type="passenger"/>
    <trip id="pas175" depart="1750.00" from="-28885070#1" to="550753287#5" type="passenger"/>
    <trip id="pas176" depart="1760.00" from="550745968" to="249697090#2" type="passenger"/>
    <trip id="pas177" depart="1770.00" from="4734475#0" to="-462566123" type="passenger"/>
    <trip id="pas178" depart="1780.00" from="245553663#0" to="247833369#1" type="passenger"/>
    <trip id="pas179" depart="1790.00" from="-550867442#2" to="27570527#3" type="passenger"/>
    <trip id="pas180" depart="1800.00" from="-27840841#1" to="473691589" type="passenger"/>
    <trip id="pas181" depart="1810.00" from="-143331549#1" to="518474788" type="passenger"/>
    <trip id="pas182" depart="1820.00" from="-327764057#2" to="-39368522#0" type="passenger"/>
    <trip id="pas183" depart="1830.00" from="344144147#0" to="-221893257" type="passenger"/>
    <trip id="pas184" depart="1840.00" from="-162154108#1" to="4902440#1" type="passenger"/>
    <trip id="pas185" depart="1850.00" from="-4902377#0" to="161392070" type="passenger"/>
    <trip id="pas186" depart="1860.00" from="-386278913" to="-27490680" type="passenger"/>
    <trip id="pas187" depart="1870.00" from="475330829" to="28788384" type="passenger"/>
    <trip id="pas188" depart="1880.00" from="249697090#1" to="27570528#4" type="passenger"/>
    <trip id="pas189" depart="1890.00" from="-27570528#4" to="143331549#2" type="passenger"/>
    <trip id="pas190" depart="1900.00" from="-518474575" to="-327764057#1" type="passenger"/>
    <trip id="pas191" depart="1910.00" from="28885055#1" to="162154113" type="passenger"/>
    <trip id="pas192" depart="1920.00" from="344144147#0" to="-4902453" type="passenger"/>
    <trip id="pas193" depart="1930.00" from="-550867442#2" to="4902394#7" type="passenger"/>
    <trip id="pas194" depart="1940.00" from="4902440#3" to="550867442#2" type="passenger"/>
    <trip id="pas195" depart="1950.00" from="4902414#2" to="39368522#5" type="passenger"/>
    <trip id="pas196" depart="1960.00" from="549939609#3" to="518473674" type="passenger"/>
    <trip id="pas197" depart="1970.00" from="-549928646#0" to="-162043157#1" type="passenger"/>
    <trip id="pas198" depart="1980.00" from="161392062" to="-39368522#5" type="passenger"/>
    <trip id="pas199" depart="1990.00" from="4734475#0" to="-4902447" type="passenger"/>
    <trip id="pas200" depart="2000.00" from="-550867442#2" to="4877450" type="passenger"/>
    <trip id="pas201" depart="2010.00" from="473691590#1" to="327764058" type="passenger"/>
    <trip id="pas202" depart="2020.00" from="39368522#0" to="143331549#2" type="passenger"/>
    <trip id="pas203" depart="2030.00" from="344144147#1" to="27840841#1" type="passenger"/>
    <trip id="pas204" depart="2040.00" from="179109642#0" to="143331549#2" type="passenger"/>
    <trip id="pas205" depart="2050.00" from="4734476#0" to="-28885070#0" type="passenger"/>
    <trip id="pas206" depart="2060.00" from="161392081" to="15968349" type="passenger"/>
    <trip id="pas207" depart="2070.00" from="39368522#4" to="27840841#1" type="passenger"/>
    <trip id="pas208" depart="2080.00" from="-386278913" to="245234799#1" type="passenger"/>
    <trip id="pas209" depart="2090.00" from="-27803780#2" to="518474788" type="passenger"/>
    <trip id="pas210" depart="2100.00" from="549939609#0" to="518474788" type="passenger"/>
    <trip id="pas211" depart="2110.00" from="549928642#2" to="162154113" type="passenger"/>
    <trip id="pas212" depart="2120.00" from="4902408" to="-548651990#0" type="passenger"/>
    <trip id="pas213" depart="2130.00" from="344144147#0" to="-4902394#0" type="passenger"/>
    <trip id="pas214" depart="2140.00" from="473684643" to="28788361#0" type="passenger"/>
    <trip id="pas215" depart="2150.00" from="4734476#0" to="4902394#7" type="passenger"/>
    <trip id="pas216" depart="2160.00" from="27840840#3" to="438155977#1" type="passenger"/>
    <trip id="pas217" depart="2170.00" from="-511815820" to="143331549#2" type="passenger"/>
    <trip id="pas218" depart="2180.00" from="247833367" to="27803780#2" type="passenger"/>
    <trip id="pas219" depart="2190.00" from="-549928648#1" to="4806304#1" type="passenger"/>
    <trip id="pas220" depart="2200.00" from="162154108#0" to="28885040#5" type="passenger"/>
    <trip id="pas221" depart="2210.00" from="-386114209" to="221893225" type="passenger"/>
    <trip id="pas222" depart="2220.00" from="-4902451#0" to="247833369#1" type="passenger"/>
    <trip id="pas223" depart="2230.00" from="4559381" to="4559084" type="passenger"/>
    <trip id="pas224" depart="2240.00" from="-327764057#1" to="162154113" type="passenger"/>
    <trip id="pas225" depart="2250.00" from="550860118#3" to="4774365#1" type="passenger"/>
    <trip id="pas226" depart="2260.00" from="161389761#2" to="386278897" type="passenger"/>
    <trip id="pas227" depart="2270.00" from="4902399" to="4734475#4" type="passenger"/>
    <trip id="pas228" depart="2280.00" from="39368524#2" to="28885040#5" type="passenger"/>
    <trip id="pas229" depart="2290.00" from="550747490" to="27840841#1" type="passenger"/>
    <trip id="pas230" depart="2300.00" from="-8154721#1" to="-473684643" type="passenger"/>
    <trip id="pas231" depart="2310.00" from="4902394#3" to="-473684643" type="passenger"/>
    <trip id="pas232" depart="2320.00" from="162154108#0" to="247833370#1" type="passenger"/>
    <trip id="pas233" depart="2330.00" from="179109642#1" to="15968349" type="passenger"/>
    <trip id="pas234" depart="2340.00" from="4902433" to="221893217#4" type="passenger"/>
    <trip id="pas235" depart="2350.00" from="221893285#0" to="15968349" type="passenger"/>
    <trip id="pas236" depart="2360.00" from="143331549#1" to="28885040#5" type="passenger"/>
    <trip id="pas237" depart="2370.00" from="4902391" to="-39368522#2" type="passenger"/>
    <trip id="pas238" depart="2380.00" from="4902441" to="15968349" type="passenger"/>
    <trip id="pas239" depart="2390.00" from="473684641#1" to="143331549#2" type="passenger"/>
    <trip id="pas240" depart="2400.00" from="162154108#0" to="550753287#5" type="passenger"/>
    <trip id="pas241" depart="2410.00" from="-4774404" to="27570528#3" type="passenger"/>
    <trip id="pas242" depart="2420.00" from="-4877455" to="96097794" type="passenger"/>
    <trip id="pas243" depart="2430.00" from="-8154721#0" to="-221893257" type="passenger"/>
    <trip id="pas244" depart="2440.00" from="4902421" to="4774365#1" type="passenger"/>
    <trip id="pas245" depart="2450.00" from="4902431" to="319453544" type="passenger"/>
    <trip id="pas246" depart="2460.00" from="4559381" to="28885040#5" type="passenger"/>
    <trip id="pas247" depart="2470.00" from="549928642#1" to="386278897" type="passenger"/>
    <trip id="pas248" depart="2480.00" from="-162154108#1" to="28885040#0" type="passenger"/>
    <trip id="pas249" depart="2490.00" from="-4902394#0" to="-39368524#0" type="passenger"/>
    <trip id="pas250" depart="2500.00" from="-4902392" to="249697090#0" type="passenger"/>
    <trip id="pas251" depart="2510.00" from="4902370" to="162154108#1" type="passenger"/>
    <trip id="pas252" depart="2520.00" from="462566123" to="438155977#0" type="passenger"/>
    <trip id="pas253" depart="2530.00" from="473684643" to="4902374#0" type="passenger"/>
    <trip id="pas254" depart="2540.00" from="-386278913" to="4902421" type="passenger"/>
    <trip id="pas255" depart="2550.00" from="221893285#0" to="4774365#0" type="passenger"/>
    <trip id="pas256" depart="2560.00" from="221893257" to="161389761#2" type="passenger"/>
    <trip id="pas257" depart="2570.00" from="-229481708#0" to="-4902426" type="passenger"/>
    <trip id="pas258" depart="2580.00" from="4734475#4" to="-4902414#3" type="passenger"/>
    <trip id="pas259" depart="2590.00" from="4902453" to="161392075#2" type="passenger"/>
    <trip id="pas260" depart="2600.00" from="245553663#3" to="550735549" type="passenger"/>
    <trip id="pas261" depart="2610.00" from="247833371#1-AddedOnRampEdge" to="4902451#2" type="passenger"/>
    <trip id="pas262" depart="2620.00" from="4559381" to="-27840840#2" type="passenger"/>
    <trip id="pas263" depart="2630.00" from="28885070#0" to="518473673" type="passenger"/>
    <trip id="pas264" depart="2640.00" from="27570528#1" to="161392069#1" type="passenger"/>
    <trip id="pas265" depart="2650.00" from="-518473674" to="386278913" type="passenger"/>
    <trip id="pas266" depart="2660.00" from="511815820" to="162154113" type="passenger"/>
    <trip id="pas267" depart="2670.00" from="96097829#2" to="143331549#2" type="passenger"/>
    <trip id="pas268" depart="2680.00" from="8148885#1" to="550753287#5" type="passenger"/>
    <trip id="pas269" depart="2690.00" from="-27840838#0" to="438155977#1-AddedOnRampEdge" type="passenger"/>
    <trip id="pas270" depart="2700.00" from="-550867442#0" to="4902451#2" type="passenger"/>
    <trip id="pas271" depart="2710.00" from="39368522#5" to="550753287#5" type="passenger"/>
    <trip id="pas272" depart="2720.00" from="4806303" to="-221893285#0" type="passenger"/>
    <trip id="pas273" depart="2730.00" from="39368522#5" to="550753287#5" type="passenger"/>
    <trip id="pas274" depart="2740.00" from="-550867442#2" to="4902399" type="passenger"/>
    <trip id="pas275" depart="2750.00" from="161389756#1" to="327764057#2" type="passenger"/>
    <trip id="pas276" depart="2760.00" from="-4902451#1" to="550712036#0" type="passenger"/>
    <trip id="pas277" depart="2770.00" from="245553663#0" to="-327764057#1" type="passenger"/>
    <trip id="pas278" depart="2780.00" from="-27840840#4" to="473684642#1" type="passenger"/>
    <trip id="pas279" depart="2790.00" from="4902441" to="161392068" type="passenger"/>
    <trip id="pas280" depart="2800.00" from="-550712033" to="-27570528#3" type="passenger"/>
    <trip id="pas281" depart="2810.00" from="4902441" to="4806304#0" type="passenger"/>
    <trip id="pas282" depart="2820.00" from="549939609#2" to="438155977#1-AddedOnRampEdge" type="passenger"/>
    <trip id="pas283" depart="2830.00" from="-179109642#2" to="327754983" type="passenger"/>
    <trip id="pas284" depart="2840.00" from="-550867442#2" to="4902451#2" type="passenger"/>
    <trip id="pas285" depart="2850.00" from="96097834" to="4877450" type="passenger"/>
    <trip id="pas286" depart="2860.00" from="27467656" to="4902414#3" type="passenger"/>
    <trip id="pas287" depart="2870.00" from="4902418#1" to="-27840838#1" type="passenger"/>
    <trip id="pas288" depart="2880.00" from="-340955662" to="-473684643" type="passenger"/>
    <trip id="pas289" depart="2890.00" from="-4902394#7" to="438155977#1" type="passenger"/>
    <trip id="pas290" depart="2900.00" from="344144147#0" to="4877450" type="passenger"/>
    <trip id="pas291" depart="2910.00" from="245553663#4" to="4328546#2" type="passenger"/>
    <trip id="pas292" depart="2920.00" from="162154108#0" to="27840841#1" type="passenger"/>
    <trip id="pas293" depart="2930.00" from="-473691590#1" to="386278913" type="passenger"/>
    <trip id="pas294" depart="2940.00" from="-550867442#2" to="327764057#2" type="passenger"/>
    <trip id="pas295" depart="2950.00" from="-27840841#1" to="161389761#0" type="passenger"/>
    <trip id="pas296" depart="2960.00" from="28788365#1" to="161392067" type="passenger"/>
    <trip id="pas297" depart="2970.00" from="473684641#1" to="28788362" type="passenger"/>
    <trip id="pas298" depart="2980.00" from="247833370#1" to="28788365#0" type="passenger"/>
    <trip id="pas299" depart="2990.00" from="550860118#2" to="-4902447" type="passenger"/>
    <trip id="pas300" depart="3000.00" from="245553663#2" to="549928648#2" type="passenger"/>
    <trip id="pas301" depart="3010.00" from="344144147#0" to="27840840#1" type="passenger"/>
    <trip id="pas302" depart="3020.00" from="27570527#0" to="518473678" type="passenger"/>
    <trip id="pas303" depart="3030.00" from="4559381" to="4902399" type="passenger"/>
    <trip id="pas304" depart="3040.00" from="-550867442#2" to="245553663#8" type="passenger"/>
    <trip id="pas305" depart="3050.00" from="-4902436#1" to="86936182" type="passenger"/>
    <trip id="pas306" depart="3060.00" from="550867442#1" to="245553663#3" type="passenger"/>
    <trip id="pas307" depart="3070.00" from="4902374#2" to="162043157#0" type="passenger"/>
    <trip id="pas308" depart="3080.00" from="550712036#2" to="4902394#5" type="passenger"/>
    <trip id="pas309" depart="3090.00" from="245553663#5" to="-27467656" type="passenger"/>
    <trip id="pas310" depart="3100.00" from="-386114209" to="86936182" type="passenger"/>
    <trip id="pas311" depart="3110.00" from="4806304#0" to="4902418#3" type="passenger"/>
    <trip id="pas312" depart="3120.00" from="-327764058" to="473691590#0" type="passenger"/>
    <trip id="pas313" depart="3130.00" from="161392065" to="4902418#2" type="passenger"/>
    <trip id="pas314" depart="3140.00" from="-386278913" to="550712033" type="passenger"/>
    <trip id="pas315" depart="3150.00" from="-549928648#0" to="162154113" type="passenger"/>
    <trip id="pas316" depart="3160.00" from="473684643" to="4877450" type="passenger"/>
    <trip id="pas317" depart="3170.00" from="327764059#1" to="475330829" type="passenger"/>
    <trip id="pas318" depart="3180.00" from="-4877450" to="550867442#2" type="passenger"/>
    <trip id="pas319" depart="3190.00" from="550712034" to="4902444" type="passenger"/>
    <trip id="pas320" depart="3200.00" from="-4902451#2" to="161389756#1" type="passenger"/>