<?xml version="1.0"?>
<!-- generated on 2018-01-06 14:52:37.180039 by $Id: randomTrips.py 23999 2017-04-21 09:04:47Z behrisch $
  options: <doubleminus>seed 42 <doubleminus>fringe-factor 5 <doubleminus>prefix bus <doubleminus>vehicle-class bus -n /media/jefferson/Dados/workspace/gtracker/vanet/sp/sp.net.xml -r /media/jefferson/Dados/workspace/gtracker/vanet/sp/sp.bus.rou.xml -p 10 -e 3600 -o /media/jefferson/Dados/workspace/gtracker/vanet/sp/sp.bus.trips.xml
-->
<routes xmlns:xsi="http://www.w3.org/2001/XMLSchema-instance" xsi:noNamespaceSchemaLocation="http://sumo.dlr.de/xsd/routes_file.xsd">
    <vType id="bus" vClass="bus" />
    <trip id="bus0" depart="0.00" from="327764058" to="-221893225" type="bus"/>
    <trip id="bus1" depart="10.00" from="-4902428" to="-4902453" type="bus"/>
    <trip id="bus2" depart="20.00" from="462566123" to="4734490" type="bus"/>
    <trip id="bus3" depart="30.00" from="548651990#0" to="-28788362" type="bus"/>
    <trip id="bus4" depart="40.00" from="161392075#0" to="-221893257" type="bus"/>
    <trip id="bus5" depart="50.00" from="-4774404" to="28788368#0" type="bus"/>
    <trip id="bus6" depart="60.00" from="-221893217#0" to="-4902418#4" type="bus"/>
    <trip id="bus7" depart="70.00" from="329013842" to="319453543#4" type="bus"/>
    <trip id="bus8" depart="80.00" from="-4774404" to="386114209" type="bus"/>
    <trip id="bus9" depart="90.00" from="4902394#3" to="-162043157#1" type="bus"/>
    <trip id="bus10" depart="100.00" from="4902394#1" to="4774365#1" type="bus"/>
    <trip id="bus11" depart="110.00" from="-549928646#1" to="-4734472" type="bus"/>
    <trip id="bus12" depart="120.00" from="550753287#3" to="161392081" type="bus"/>
    <trip id="bus13" depart="130.00" from="-27840841#0" to="-28788370#0" type="bus"/>
    <trip id="bus14" depart="140.00" from="4902441" to="386278913" type="bus"/>
    <trip id="bus15" depart="150.00" from="4902394#2" to="4877455" type="bus"/>
    <trip id="bus16" depart="160.00" from="27570527#0" to="550867442#2" type="bus"/>
    <trip id="bus17" depart="170.00" from="-8154723" to="319453545#1" type="bus"/>
    <trip id="bus18" depart="180.00" from="4902421" to="39368524#2" type="bus"/>
    <trip id="bus19" depart="190.00" from="4902453" to="329013842" type="bus"/>
    <trip id="bus20" depart="200.00" from="4559007" to="-27467656" type="bus"/>
    <trip id="bus21" depart="210.00" from="-4877450" to="161389758" type="bus"/>
    <trip id="bus22" depart="220.00" from="-27840840#1" to="-518474575" type="bus"/>
    <trip id="bus23" depart="230.00" from="-28788361#0" to="15968284" type="bus"/>
    <trip id="bus24" depart="240.00" from="327757314" to="221893217#3" type="bus"/>
    <trip id="bus25" depart="250.00" from="-550867442#2" to="-4902441" type="bus"/>
    <trip id="bus26" depart="260.00" from="-4902418#1" to="550749977" type="bus"/>
    <trip id="bus27" depart="270.00" from="327956374" to="39368522#1" type="bus"/>
    <trip id="bus28" depart="280.00" from="-386278913" to="4877455" type="bus"/>
    <trip id="bus29" depart="290.00" from="-386114209" to="245234799#1" type="bus"/>
    <trip id="bus30" depart="300.00" from="96097829#0" to="4559005#0" type="bus"/>
    <trip id="bus31" depart="310.00" from="27840838#1" to="473691589" type="bus"/>
    <trip id="bus32" depart="320.00" from="4902440#2" to="4902418#3" type="bus"/>
    <trip id="bus33" depart="330.00" from="-4877450" to="-221893257" type="bus"/>
    <trip id="bus34" depart="340.00" from="-518473677" to="143331549#0" type="bus"/>
    <trip id="bus35" depart="350.00" from="-4774365#1" to="550753287#2" type="bus"/>
    <trip id="bus36" depart="360.00" from="518473679" to="161392068" type="bus"/>
    <trip id="bus37" depart="370.00" from="344144147#0" to="245553663#4" type="bus"/>
    <trip id="bus38" depart="380.00" from="549928648#1" to="27803780#0" type="bus"/>
    <trip id="bus39" depart="390.00" from="-4902414#3" to="-549928648#1" type="bus"/>
    <trip id="bus40" depart="400.00" from="27840840#1" to="-8154721#0" type="bus"/>
    <trip id="bus41" depart="410.00" from="28788368#1" to="550674386" type="bus"/>
    <trip id="bus42" depart="420.00" from="161392059#0" to="-4902453" type="bus"/>
    <trip id="bus43" depart="430.00" from="96097829#2" to="28788370#1" type="bus"/>
    <trip id="bus44" depart="440.00" from="-27840840#4" to="-27467656" type="bus"/>
    <trip id="bus45" depart="450.00" from="-28788365#2" to="4328546#2" type="bus"/>
    <trip id="bus46" depart="460.00" from="4902374#0" to="249697090#2" type="bus"/>
    <trip id="bus47" depart="470.00" from="-27570528#4" to="245234799#2" type="bus"/>
    <trip id="bus48" depart="480.00" from="96097829#1" to="28885055#1" type="bus"/>
    <trip id="bus49" depart="490.00" from="550860119#2" to="518474788" type="bus"/>
    <trip id="bus50" depart="500.00" from="-162043156" to="4877450" type="bus"/>
    <trip id="bus51" depart="510.00" from="39368523" to="319447428#3" type="bus"/>
    <trip id="bus52" depart="520.00" from="-4902418#1" to="4559005#1" type="bus"/>
    <trip id="bus53" depart="530.00" from="-28788366" to="27490680" type="bus"/>
    <trip id="bus54" depart="540.00" from="221893257" to="550756710#0" type="bus"/>
    <trip id="bus55" depart="550.00" from="518473675" to="-8154721#1" type="bus"/>
    <trip id="bus56" depart="560.00" from="245553663#5" to="-4902394#1" type="bus"/>
    <trip id="bus57" depart="570.00" from="549928648#0" to="549928635" type="bus"/>
    <trip id="bus58" depart="580.00" from="-490522132" to="4523238" type="bus"/>
    <trip id="bus59" depart="590.00" from="28885070#1" to="-462566123" type="bus"/>
    <trip id="bus60" depart="600.00" from="473684641#0" to="319453543#0" type="bus"/>
    <trip id="bus61" depart="610.00" from="475330829" to="28885070#1" type="bus"/>
    <trip id="bus62" depart="620.00" from="-143331549#0" to="161392072" type="bus"/>
    <trip id="bus63" depart="630.00" from="-162154108#1" to="550735550" type="bus"/>
    <trip id="bus64" depart="640.00" from="518473680" to="518473676" type="bus"/>
    <trip id="bus65" depart="650.00" from="-518473674" to="-27570527#3" type="bus"/>
    <trip id="bus66" depart="660.00" from="518473680" to="550753287#5" type="bus"/>
    <trip id="bus67" depart="670.00" from="-27840840#4" to="27840841#1" type="bus"/>
    <trip id="bus68" depart="680.00" from="-27803780#0" to="4902394#7" type="bus"/>
    <trip id="bus69" depart="690.00" from="473684642#1" to="-341224416" type="bus"/>
    <trip id="bus70" depart="700.00" from="245234799#1" to="319453545#0" type="bus"/>
    <trip id="bus71" depart="710.00" from="-4902414#3" to="549928642#1" type="bus"/>
    <trip id="bus72" depart="720.00" from="161392075#1" to="-4902441" type="bus"/>
    <trip id="bus73" depart="730.00" from="27570527#2" to="4877455" type="bus"/>
    <trip id="bus74" depart="740.00" from="-473691589" to="161392066" type="bus"/>
    <trip id="bus75" depart="750.00" from="96097829#0" to="4559074#3" type="bus"/>
    <trip id="bus76" depart="760.00" from="162154108#0" to="28885040#2" type="bus"/>
    <trip id="bus77" depart="770.00" from="-28885040#0" to="-4902453" type="bus"/>
    <trip id="bus78" depart="780.00" from="-548651990#1" to="386114209" type="bus"/>
    <trip id="bus79" depart="790.00" from="-4877455" to="-4902453" type="bus"/>
    <trip id="bus80" depart="800.00" from="-27803780#2" to="438155977#1" type="bus"/>
    <trip id="bus81" depart="810.00" from="-4877450" to="550712032#1" type="bus"/>
    <trip id="bus82" depart="820.00" from="4902453" to="-27840836" type="bus"/>
    <trip id="bus83" depart="830.00" from="-4902377#0" to="4734475#3" type="bus"/>
    <trip id="bus84" depart="840.00" from="-4774365#1" to="-39368522#0" type="bus"/>
    <trip id="bus85" depart="850.00" from="550712036#0" to="327956372" type="bus"/>
    <trip id="bus86" depart="860.00" from="229481708#2" to="4902433" type="bus"/>
    <trip id="bus87" depart="870.00" from="4902394#2" to="-4902414#3" type="bus"/>
    <trip id="bus88" depart="880.00" from="-27840841#1" to="249870999" type="bus"/>
    <trip id="bus89" depart="890.00" from="161392075#1" to="27840838#1" type="bus"/>
    <trip id="bus90" depart="900.00" from="462564634" to="4734487" type="bus"/>
    <trip id="bus91" depart="910.00" from="8154721#3" to="-28788370#1" type="bus"/>
    <trip id="bus92" depart="920.00" from="161392064#0" to="162043157#0" type="bus"/>
    <trip id="bus93" depart="930.00" from="4902453" to="-550712033" type="bus"/>
    <trip id="bus94" depart="940.00" from="-4734472" to="27570528#1" type="bus"/>
    <trip id="bus95" depart="950.00" from="161392075#0" to="15968349" type="bus"/>
    <trip id="bus96" depart="960.00" from="-4902394#5" to="550732345" type="bus"/>
    <trip id="bus97" depart="970.00" from="179109642#0" to="518474788" type="bus"/>
    <trip id="bus98" depart="980.00" from="27803780#0" to="-27467656" type="bus"/>
    <trip id="bus99" depart="990.00" from="96097834" to="518473676" type="bus"/>
    <trip id="bus100" depart="1000.00" from="550860118#3" to="550735550" type="bus"/>
    <trip id="bus101" depart="1010.00" from="4902441" to="-473691590#0" type="bus"/>
    <trip id="bus102" depart="1020.00" from="245546867" to="-4902444" type="bus"/>
    <trip id="bus103" depart="1030.00" from="161392062" to="-27570527#4" type="bus"/>
    <trip id="bus104" depart="1040.00" from="-8154723" to="8154721#3" type="bus"/>
    <trip id="bus105" depart="1050.00" from="-4902418#0" to="4902431" type="bus"/>
    <trip id="bus106" depart="1060.00" from="221893257" to="249697090#2" type="bus"/>
    <trip id="bus107" depart="1070.00" from="550753287#4" to="96097794" type="bus"/>
    <trip id="bus108" depart="1080.00" from="27840838#0" to="4877450" type="bus"/>
    <trip id="bus109" depart="1090.00" from="-341224416" to="161389762-AddedOnRampEdge" type="bus"/>
    <trip id="bus110" depart="1100.00" from="550860118#3" to="340955662" type="bus"/>
    <trip id="bus111" depart="1110.00" from="27570527#4" to="4902394#0" type="bus"/>
    <trip id="bus112" depart="1120.00" from="-27570528#1" to="380438949#1" type="bus"/>
    <trip id="bus113" depart="1130.00" from="245553663#7" to="518473679" type="bus"/>
    <trip id="bus114" depart="1140.00" from="-386114209" to="550860118#2" type="bus"/>
    <trip id="bus115" depart="1150.00" from="-27840840#1" to="-4902399" type="bus"/>
    <trip id="bus116" depart="1160.00" from="28885040#2" to="4734488" type="bus"/>
    <trip id="bus117" depart="1170.00" from="-4877455" to="-28885070#1" type="bus"/>
    <trip id="bus118" depart="1180.00" from="548651990#0" to="-549928648#1" type="bus"/>
    <trip id="bus119" depart="1190.00" from="28885040#1" to="401773368" type="bus"/>
    <trip id="bus120" depart="1200.00" from="161392073#0" to="380438949#0" type="bus"/>
    <trip id="bus121" depart="1210.00" from="249697090#1" to="550747490" type="bus"/>
    <trip id="bus122" depart="1220.00" from="-473691590#1" to="4877450" type="bus"/>
    <trip id="bus123" depart="1230.00" from="-4902377#2" to="245553663#4" type="bus"/>
    <trip id="bus124" depart="1240.00" from="39368522#0" to="161392059#0" type="bus"/>
    <trip id="bus125" depart="1250.00" from="-518473677" to="4902394#3" type="bus"/>
    <trip id="bus126" depart="1260.00" from="-27840836" to="27570528#4" type="bus"/>
    <trip id="bus127" depart="1270.00" from="96097829#2" to="96097829#1" type="bus"/>
    <trip id="bus128" depart="1280.00" from="-27840836" to="-4902444" type="bus"/>
    <trip id="bus129" depart="1290.00" from="-4902418#0" to="550745968" type="bus"/>
    <trip id="bus130" depart="1300.00" from="518473680" to="549928648#0" type="bus"/>
    <trip id="bus131" depart="1310.00" from="-550867442#2" to="-473684642#1" type="bus"/>
    <trip id="bus132" depart="1320.00" from="4902431" to="4774404" type="bus"/>
    <trip id="bus133" depart="1330.00" from="319447428#0" to="86936182" type="bus"/>
    <trip id="bus134" depart="1340.00" from="344144147#0" to="-162154108#0" type="bus"/>
    <trip id="bus135" depart="1350.00" from="4902414#1" to="161389765" type="bus"/>
    <trip id="bus136" depart="1360.00" from="380438949#0" to="550753287#0" type="bus"/>
    <trip id="bus137" depart="1370.00" from="-28885040#5" to="-28885070#0" type="bus"/>
    <trip id="bus138" depart="1380.00" from="-28788365#0" to="323823408" type="bus"/>
    <trip id="bus139" depart="1390.00" from="-4902418#4" to="386278913" type="bus"/>
    <trip id="bus140" depart="1400.00" from="4559084" to="-4902436#0" type="bus"/>
    <trip id="bus141" depart="1410.00" from="327754983" to="-8154721#1" type="bus"/>
    <trip id="bus142" depart="1420.00" from="245553663#0" to="550712032#1" type="bus"/>
    <trip id="bus143" depart="1430.00" from="4902441" to="-28788365#2" type="bus"/>
    <trip id="bus144" depart="1440.00" from="161392075#1" to="143331549#2" type="bus"/>
    <trip id="bus145" depart="1450.00" from="-143331549#2" to="4902416#0" type="bus"/>
    <trip id="bus146" depart="1460.00" from="327764057#0" to="-8154721#0" type="bus"/>
    <trip id="bus147" depart="1470.00" from="4734475#0" to="319453545#1" type="bus"/>
    <trip id="bus148" depart="1480.00" from="161392080" to="-162154108#0" type="bus"/>
    <trip id="bus149" depart="1490.00" from="-27840838#1" to="549928648#2" type="bus"/>
    <trip id="bus150" depart="1500.00" from="549928642#0" to="319453543#5" type="bus"/>
    <trip id="bus151" depart="1510.00" from="4902431" to="380438949#0" type="bus"/>
    <trip id="bus152" depart="1520.00" from="-327764057#2" to="-340955664" type="bus"/>
    <trip id="bus153" depart="1530.00" from="-518473674" to="550674386" type="bus"/>
    <trip id="bus154" depart="1540.00" from="4902374#3" to="518474788" type="bus"/>
    <trip id="bus155" depart="1550.00" from="549915319" to="-4902441" type="bus"/>
    <trip id="bus156" depart="1560.00" from="-4902394#5" to="-28885040#0" type="bus"/>
    <trip id="bus157" depart="1570.00" from="4774365#0" to="549928648#3" type="bus"/>
    <trip id="bus158" depart="1580.00" from="161392064#3" to="401773368" type="bus"/>
    <trip id="bus159" depart="1590.00" from="-340955664" to="550735550" type="bus"/>
    <trip id="bus160" depart="1600.00" from="4902453" to="550867442#2" type="bus"/>
    <trip id="bus161" depart="1610.00" from="4902394#4" to="549928648#1" type="bus"/>
    <trip id="bus162" depart="1620.00" from="-179109642#1" to="4902374#1" type="bus"/>
    <trip id="bus163" depart="1630.00" from="-518474788" to="550735550" type="bus"/>
    <trip id="bus164" depart="1640.00" from="4902391" to="549345534" type="bus"/>
    <trip id="bus165" depart="1650.00" from="4902394#4" to="-8154723" type="bus"/>
    <trip id="bus166" depart="1660.00" from="4877453" to="-28885040#4" type="bus"/>
    <trip id="bus167" depart="1670.00" from="518473672" to="518474788" type="bus"/>
    <trip id="bus168" depart="1680.00" from="-4877450" to="511815819" type="bus"/>
    <trip id="bus169" depart="1690.00" from="221893257" to="161392064#1" type="bus"/>
    <trip id="bus170" depart="1700.00" from="4902374#3" to="-511815820" type="bus"/>
    <trip id="bus171" depart="1710.00" from="-179109642#1" to="-4902418#0" type="bus"/>
    <trip id="bus172" depart="1720.00" from="-518473679" to="549345534" type="bus"/>
    <trip id="bus173" depart="1730.00" from="550860118#2" to="15968349" type="bus"/>
    <trip id="bus174" depart="1740.00" from="327764059#0" to="245553663#7" type="bus"/>
    <trip id="bus175" depart="1750.00" from="8154721#1" to="319447428#2" type="bus"/>
    <trip id="bus176" depart="1760.00" from="550712036#2" to="-28885070#0" type="bus"/>
    <trip id="bus177" depart="1770.00" from="550860119#0" to="-4902394#1" type="bus"/>
    <trip id="bus178" depart="1780.00" from="550757841" to="-8154721#2" type="bus"/>
    <trip id="bus179" depart="1790.00" from="-28788365#1" to="249871000" type="bus"/>
    <trip id="bus180" depart="1800.00" from="4559381" to="161392067" type="bus"/>
    <trip id="bus181" depart="1810.00" from="28885070#0" to="28788371#1" type="bus"/>
    <trip id="bus182" depart="1820.00" from="161389756#0" to="327956374" type="bus"/>
    <trip id="bus183" depart="1830.00" from="-4902394#7" to="4774404" type="bus"/>
    <trip id="bus184" depart="1840.00" from="-143331549#1" to="550735550" type="bus"/>
    <trip id="bus185" depart="1850.00" from="27570527#1" to="4877450" type="bus"/>
    <trip id="bus186" depart="1860.00" from="4734475#0" to="4734476#0" type="bus"/>
    <trip id="bus187" depart="1870.00" from="-550867442#1" to="-27840836" type="bus"/>
    <trip id="bus188" depart="1880.00" from="380438949#1" to="161392075#1" type="bus"/>
    <trip id="bus189" depart="1890.00" from="-518473677" to="518473678" type="bus"/>
    <trip id="bus190" depart="1900.00" from="4559087" to="161392059#0" type="bus"/>
    <trip id="bus191" depart="1910.00" from="-518473674" to="247833369#1" type="bus"/>
    <trip id="bus192" depart="1920.00" from="161392064#0" to="161389762-AddedOnRampEdge" type="bus"/>
    <trip id="bus193" depart="1930.00" from="-28885040#4" to="249697090#2" type="bus"/>
    <trip id="bus194" depart="1940.00" from="550725735#0" to="4734490" type="bus"/>
    <trip id="bus195" depart="1950.00" from="549928642#0" to="39368524#0" type="bus"/>
    <trip id="bus196" depart="1960.00" from="-511815819" to="319453543#6" type="bus"/>
    <trip id="bus197" depart="1970.00" from="-143331549#0" to="161389756#0" type="bus"/>
    <trip id="bus198" depart="1980.00" from="161392081" to="340955664" type="bus"/>
    <trip id="bus199" depart="1990.00" from="344144147#0" to="27840838#0" type="bus"/>
    <trip id="bus200" depart="2000.00" from="179109642#0" to="-4902444" type="bus"/>
    <trip id="bus201" depart="2010.00" from="245234799#0" to="550674386" type="bus"/>
    <trip id="bus202" depart="2020.00" from="4902374#3" to="-473691594" type="bus"/>
    <trip id="bus203" depart="2030.00" from="-27840840#4" to="28885040#0" type="bus"/>
    <trip id="bus204" depart="2040.00" from="323823408" to="161392080" type="bus"/>
    <trip id="bus205" depart="2050.00" from="4902414#2" to="4902394#2" type="bus"/>
    <trip id="bus206" depart="2060.00" from="39368522#0" to="-4902453" type="bus"/>
    <trip id="bus207" depart="2070.00" from="-473691589" to="-221893225" type="bus"/>
    <trip id="bus208" depart="2080.00" from="-4902394#2" to="27840840#4" type="bus"/>
    <trip id="bus209" depart="2090.00" from="4902441" to="-27840838#1" type="bus"/>
    <trip id="bus210" depart="2100.00" from="161392069#1" to="438155977#1" type="bus"/>
    <trip id="bus211" depart="2110.00" from="-473691589" to="4774365#1" type="bus"/>
    <trip id="bus212" depart="2120.00" from="245553663#1" to="-549928646#1" type="bus"/>
    <trip id="bus213" depart="2130.00" from="344144147#0" to="-162043157#0" type="bus"/>
    <trip id="bus214" depart="2140.00" from="4734475#2" to="4902416#0" type="bus"/>
    <trip id="bus215" depart="2150.00" from="-28788365#0" to="249697090#2" type="bus"/>
    <trip id="bus216" depart="2160.00" from="-386278913" to="550860118#0" type="bus"/>
    <trip id="bus217" depart="2170.00" from="247833371#1" to="-27467656" type="bus"/>
    <trip id="bus218" depart="2180.00" from="-4902394#5" to="518473678" type="bus"/>
    <trip id="bus219" depart="2190.00" from="221893257" to="4902451#2" type="bus"/>
    <trip id="bus220" depart="2200.00" from="39368522#0" to="86936182" type="bus"/>
    <trip id="bus221" depart="2210.00" from="28885040#2" to="550753287#5" type="bus"/>
    <trip id="bus222" depart="2220.00" from="548651990#0" to="39368522#5" type="bus"/>
    <trip id="bus223" depart="2230.00" from="4559087" to="28788368#0" type="bus"/>
    <trip id="bus224" depart="2240.00" from="4902421" to="319453543#6" type="bus"/>
    <trip id="bus225" depart="2250.00" from="549815935" to="4902378#1" type="bus"/>
    <trip id="bus226" depart="2260.00" from="245234799#1" to="-550867442#1" type="bus"/>
    <trip id="bus227" depart="2270.00" from="-4902394#3" to="438155977#1-AddedOnRampEdge" type="bus"/>
    <trip id="bus228" depart="2280.00" from="473684642#0" to="28885040#4" type="bus"/>
    <trip id="bus229" depart="2290.00" from="319453543#6" to="143331549#2" type="bus"/>
    <trip id="bus230" depart="2300.00" from="-27840838#2" to="161389756#0" type="bus"/>
    <trip id="bus231" depart="2310.00" from="-4902418#4" to="161392068" type="bus"/>
    <trip id="bus232" depart="2320.00" from="27570527#2" to="-39368522#2" type="bus"/>
    <trip id="bus233" depart="2330.00" from="-4877455" to="475330829" type="bus"/>
    <trip id="bus234" depart="2340.00" from="4559074#0" to="-27570528#3" type="bus"/>
    <trip id="bus235" depart="2350.00" from="161392064#4" to="319453543#2" type="bus"/>
    <trip id="bus236" depart="2360.00" from="161392070" to="-4902441" type="bus"/>
    <trip id="bus237" depart="2370.00" from="161392074" to="550712032#1" type="bus"/>
    <trip id="bus238" depart="2380.00" from="28788368#1" to="4774365#0" type="bus"/>
    <trip id="bus239" depart="2390.00" from="4902451#0" to="4902408" type="bus"/>
    <trip id="bus240" depart="2400.00" from="143331549#0" to="-162043157#1" type="bus"/>
    <trip id="bus241" depart="2410.00" from="-550735550" to="4902394#4" type="bus"/>
    <trip id="bus242" depart="2420.00" from="4902444" to="550756710#0" type="bus"/>
    <trip id="bus243" depart="2430.00" from="161392073#0" to="4902394#0" type="bus"/>
    <trip id="bus244" depart="2440.00" from="27570528#1" to="386278913" type="bus"/>
    <trip id="bus245" depart="2450.00" from="-4774404" to="-4902453" type="bus"/>
    <trip id="bus246" depart="2460.00" from="162154108#0" to="-221893257" type="bus"/>
    <trip id="bus247" depart="2470.00" from="-518474788" to="473684641#1" type="bus"/>
    <trip id="bus248" depart="2480.00" from="161392064#1" to="-473684643" type="bus"/>
    <trip id="bus249" depart="2490.00" from="221893285#0" to="-340955664" type="bus"/>
    <trip id="bus250" depart="2500.00" from="319453543#3" to="-221893257" type="bus"/>
    <trip id="bus251" depart="2510.00" from="161389762" to="327764057#2" type="bus"/>
    <trip id="bus252" depart="2520.00" from="-221893217#0" to="4559005#2" type="bus"/>
    <trip id="bus253" depart="2530.00" from="-28885055#0" to="27803780#2" type="bus"/>
    <trip id="bus254" depart="2540.00" from="-27570527#2" to="245234799#0" type="bus"/>
    <trip id="bus255" depart="2550.00" from="-4774365#1" to="161392074" type="bus"/>
    <trip id="bus256" depart="2560.00" from="4734490" to="245234799#0" type="bus"/>
    <trip id="bus257" depart="2570.00" from="4734475#3" to="518473676" type="bus"/>
    <trip id="bus258" depart="2580.00" from="-4902394#7" to="-27840841#0" type="bus"/>
    <trip id="bus259" depart="2590.00" from="-162154108#1" to="319453543#0" type="bus"/>
    <trip id="bus260" depart="2600.00" from="96097834" to="162154113" type="bus"/>
    <trip id="bus261" depart="2610.00" from="329013842" to="4902426" type="bus"/>
    <trip id="bus262" depart="2620.00" from="340955662" to="4902394#4" type="bus"/>
    <trip id="bus263" depart="2630.00" from="550749977" to="-4902426" type="bus"/>
    <trip id="bus264" depart="2640.00" from="-162154108#1" to="-462566123" type="bus"/>
    <trip id="bus265" depart="2650.00" from="-28885040#3" to="4734475#4" type="bus"/>
    <trip id="bus266" depart="2660.00" from="27840840#2" to="-4902451#1" type="bus"/>
    <trip id="bus267" depart="2670.00" from="4523238" to="4902414#1" type="bus"/>
    <trip id="bus268" depart="2680.00" from="-386278897" to="386278913" type="bus"/>
    <trip id="bus269" depart="2690.00" from="4734475#0" to="-28885070#0" type="bus"/>
    <trip id="bus270" depart="2700.00" from="4902414#3" to="550860119#2" type="bus"/>
    <trip id="bus271" depart="2710.00" from="-28788365#1" to="-221893257" type="bus"/>
    <trip id="bus272" depart="2720.00" from="-518473675" to="4734490" type="bus"/>
    <trip id="bus273" depart="2730.00" from="550753287#4" to="245553663#5" type="bus"/>
    <trip id="bus274" depart="2740.00" from="4559074#6" to="-27840840#0" type="bus"/>
    <trip id="bus275" depart="2750.00" from="418990606" to="4328546#2" type="bus"/>
    <trip id="bus276" depart="2760.00" from="-28788361#1" to="4902416#2" type="bus"/>
    <trip id="bus277" depart="2770.00" from="4902441" to="386278897" type="bus"/>
    <trip id="bus278" depart="2780.00" from="-28885040#0" to="8154721#2" type="bus"/>
    <trip id="bus279" depart="2790.00" from="4806304#0" to="162154108#1" type="bus"/>
    <trip id="bus280" depart="2800.00" from="161392080" to="221893217#4" type="bus"/>
    <trip id="bus281" depart="2810.00" from="245553663#9" to="162154108#1" type="bus"/>
    <trip id="bus282" depart="2820.00" from="4902441" to="518473673" type="bus"/>
    <trip id="bus283" depart="2830.00" from="-28788362" to="550860118#2" type="bus"/>
    <trip id="bus284" depart="2840.00" from="327757314" to="518473674" type="bus"/>
    <trip id="bus285" depart="2850.00" from="4559074#1" to="27490680" type="bus"/>
    <trip id="bus286" depart="2860.00" from="462566123" to="550860119#2" type="bus"/>
    <trip id="bus287" depart="2870.00" from="-4902418#3" to="4902474" type="bus"/>
    <trip id="bus288" depart="2880.00" from="27570527#1" to="27840841#1" type="bus"/>
    <trip id="bus289" depart="2890.00" from="162154108#0" to="4877455" type="bus"/>
    <trip id="bus290" depart="2900.00" from="-4902418#2" to="518473678" type="bus"/>
    <trip id="bus291" depart="2910.00" from="4902426" to="-28788362" type="bus"/>
    <trip id="bus292" depart="2920.00" from="518473680" to="-549928646#1" type="bus"/>
    <trip id="bus293" depart="2930.00" from="221893285#0" to="39368522#2" type="bus"/>
    <trip id="bus294" depart="2940.00" from="-8154723" to="-221893257" type="bus"/>
    <trip id="bus295" depart="2950.00" from="4902441" to="-4902394#4" type="bus"/>
    <trip id="bus296" depart="2960.00" from="-4774365#1" to="4902451#0" type="bus"/>
    <trip id="bus297" depart="2970.00" from="-549928646#1" to="549928648#0" type="bus"/>
    <trip id="bus298" depart="2980.00" from="4559005#1" to="143331549#2" type="bus"/>
    <trip id="bus299" depart="2990.00" from="-143331549#2" to="550753287#5" type="bus"/>
    <trip id="bus300" depart="3000.00" from="-27840840#4" to="4877450" type="bus"/>
    <trip id="bus301" depart="3010.00" from="245553663#0" to="4902394#7" type="bus"/>
    <trip id="bus302" depart="3020.00" from="418990606" to="4559074#0" type="bus"/>
    <trip id="bus303" depart="3030.00" from="245553663#0" to="4902440#3" type="bus"/>
    <trip id="bus304" depart="3040.00" from="-27840841#1" to="-4902453" type="bus"/>
    <trip id="bus305" depart="3050.00" from="4328546#0" to="161392064#3" type="bus"/>
    <trip id="bus306" depart="3060.00" from="28788366" to="27840840#3" type="bus"/>
    <trip id="bus307" depart="3070.00" from="27467656" to="249697090#2" type="bus"/>
    <trip id="bus308" depart="3080.00" from="4734475#0" to="161392075#1" type="bus"/>
    <trip id="bus309" depart="3090.00" from="4559005#2" to="143331549#2" type="bus"/>
    <trip id="bus310" depart="3100.00" from="-4902394#7" to="-28885070#1" type="bus"/>
    <trip id="bus311" depart="3110.00" from="-473684642#0" to="-28885070#1" type="bus"/>
    <trip id="bus312" depart="3120.00" from="27570526#1" to="4902394#7" type="bus"/>
    <trip id="bus313" depart="3130.00" from="-39368523" to="-4902451#0" type="bus"/>
    <trip id="bus314" depart="3140.00" from="245546865" to="4877455" type="bus"/>
    <trip id="bus315" depart="3150.00" from="550873590" to="28885040#5" type="bus"/>
    <trip id="bus316" depart="3160.00" from="-4902451#0" to="-28788371#0" type="bus"/>
    <trip id="bus317" depart="3170.00" from="-473684642#1" to="-511815820" type="bus"/>
    <trip id="bus318" depart="3180.00" from="-39368522#1" to="-162154108#0" type="bus"/>
    <trip id="bus319" depart="3190.00" from="27570526#0" to="143331549#2" type="bus"/>
    <trip id="bus320" depart="3200.00" from="550867442#0" to="323823408" type="bus"/>
    <trip id="bus321" depart="3210.00" from="438155977#1-AddedOnRampEdge" to="-340955662" type="bus"/>
    <trip id="bus322" depart="3220.00" from="511815819" to="28788360#1" type="bus"/>
    <trip id="bus323" depart="3230.00" from="518473672" to="327956373#1" type="bus"/>
    <trip id="bus324" depart="3240.00" from="221893285#1" to="27570527#1" type="bus"/>
    <trip id="bus325" depart="3250.00" from="-39368523" to="-27490680" type="bus"/>
    <trip id="bus326" depart="3260.00" from="550725735#0" to="27840840#4" type="bus"/>
    <trip id="bus327" depart="3270.00" from="4902416#2" to="245553663#8" type="bus"/>
    <trip id="bus328" depart="3280.00" from="-27840838#0" to="438155977#1" type="bus"/>
    <trip id="bus329" depart="3290.00" from="-27570527#4" to="-462566123" type="bus"/>
    <trip id="bus330" depart="3300.00" from="27840840#2" to="161392064#0" type="bus"/>
    <trip id="bus331" depart="3310.00" from="96097829#0" to="-28885070#0" type="bus"/>
    <trip id="bus332" depart="3320.00" from="473684642#0" to="386278913" type="bus"/>
    <trip id="bus333" depart="3330.00" from="4902373" to="-4902453" type="bus"/>
    <trip id="bus334" depart="3340.00" from="249697090#1" to="27570528#3" type="bus"/>
    <trip id="bus335" depart="3350.00" from="179109642#0" to="518474788" type="bus"/>
    <trip id="bus336" depart="3360.00" from="96097829#0" to="161392064#1" type="bus"/>
    <trip id="bus337" depart="3370.00" from="319453543#2" to="39368522#2" type="bus"/>
    <trip id="bus338" depart="3380.00" from="4734474" to="550753287#5" type="bus"/>
    <trip id="bus339" depart="3390.00" from="-4774365#1" to="-4902441" type="bus"/>
    <trip id="bus340" depart="3400.00" from="344144147#0" to="-473684642#0" type="bus"/>
    <trip id="bus341" depart="3410.00" from="-386278913" to="-27840838#2" type="bus"/>
    <trip id="bus342" depart="3420.00" from="-143331549#1" to="27570528#3" type="bus"/>
    <trip id="bus343" depart="3430.00" from="28885040#1" to="161389761#1" type="bus"/>
    <trip id="bus344" depart="3440.00" from="-4877455" to="4774404" type="bus"/>