<?xml version="1.0" encoding="UTF-8"?>

<!-- generated on Thu Jan  4 15:02:29 2018 by SUMO duarouter Version 0.30.0
<?xml version="1.0" encoding="UTF-8"?>

<configuration xmlns:xsi="http://www.w3.org/2001/XMLSchema-instance" xsi:noNamespaceSchemaLocation="http://sumo.dlr.de/xsd/duarouterConfiguration.xsd">

    <input>
        <net-file value="/media/jefferson/Dados/workspace/GoodsTracker/vanet/sp/sp.net.xml"/>
        <trip-files value="/media/jefferson/Dados/workspace/GoodsTracker/vanet/sp/sp.bus.trips.xml"/>
    </input>

    <output>
        <output-file value="/media/jefferson/Dados/workspace/GoodsTracker/vanet/sp/sp.bus.rou.xml"/>
    </output>

    <processing>
        <ignore-errors value="true"/>
    </processing>

    <time>
        <begin value="0"/>
        <end value="3600.0"/>
    </time>

    <report>
        <no-warnings value="true"/>
        <no-step-log value="true"/>
    </report>

</configuration>
-->

<routes xmlns:xsi="http://www.w3.org/2001/XMLSchema-instance" xsi:noNamespaceSchemaLocation="http://sumo.dlr.de/xsd/routes_file.xsd">
    <vType id="bus" vClass="bus"/>
    <vehicle id="bus0" type="bus" depart="0.00">
        <route edges="327764059#1 161392064#0 161392064#1 161392064#3 161392064#4 161392064#5 319453543#0 319453543#1 319453543#2 161392073#0 161392072 319453543#4 319453543#5 319453543#6 161389765 161392059#0 550860119#2 -550865716 -4734472 221893217#0 221893217#1 -511815820 -221893257"/>
    </vehicle>
    <vehicle id="bus1" type="bus" depart="10.00">
        <route edges="-4902418#2 4902418#2 4902418#3 4902431 -4902428 -8154721#0 -4902447"/>
    </vehicle>
    <vehicle id="bus4" type="bus" depart="40.00">
        <route edges="161392073#0 161392072 319453543#4 319453543#5 319453543#6 161389765 161392059#0 550860119#2 -550865716 -4734472 221893217#0 221893217#1 -511815820 -221893257"/>
    </vehicle>
    <vehicle id="bus5" type="bus" depart="50.00">
        <route edges="-4774365#1 -4774365#0 550873590 550732345 550745968 550741745 550757841 550725735#0 550756710#0 550756710#1 550747490 4902378#0 4902378#1 549917967 319453543#0 27490680 -28788368#1 -28788368#0 28788368#0"/>
    </vehicle>
    <vehicle id="bus11" type="bus" depart="110.00">
        <route edges="-518474788 -162043156 -39368522#4 -518474575 -473691590#0 -39368524#1"/>
    </vehicle>
    <vehicle id="bus13" type="bus" depart="130.00">
        <route edges="-27840841#1 -27840841#0 -27803780#2 -27803780#1 179109642#1 28788370#0 28788371#0 -28788371#0"/>
    </vehicle>
    <vehicle id="bus14" type="bus" depart="140.00">
        <route edges="4902440#2 4902440#3 245553663#9 550749977 4559005#1 386223029"/>
    </vehicle>
    <vehicle id="bus15" type="bus" depart="150.00">
        <route edges="4902391 4902392 8154721#3 4902414#1 4902414#2 4902414#3 161389761#1 245553663#8 245553663#9 550749977 4559005#1 4559005#2 -550757841 -550741745 -550745968 -550732345 4877453 4877450"/>
    </vehicle>
    <vehicle id="bus18" type="bus" depart="180.00">
        <route edges="4902418#1 4902418#2 4902418#3 4902418#4 -4902451#1 -4902436#0 -549928646#1 -549928646#0 -28788362 4902394#0 4902394#1 4902394#2 4902394#3 4902394#4 4902394#5 386278913"/>
    </vehicle>
    <vehicle id="bus19" type="bus" depart="190.00">
        <route edges="4902451#1 -4902451#1 -4902436#0 4902416#0 4902416#2 161392064#3 161392064#4 27840836 27840840#3 340955664"/>
    </vehicle>
    <vehicle id="bus21" type="bus" depart="210.00">
        <route edges="-4774404 -4774365#0 550873590 550732345 550745968 550741745 550757841 550725735#0 550756710#0 550756710#1 550747490 4902378#0 4902378#1 549917967 319453543#0 319453543#1 319453543#2 161392073#0 161392072 319453543#4 319453543#5 319453543#6 319453544 161392067 161392069#1 96097794 15968349"/>
    </vehicle>
    <vehicle id="bus22" type="bus" depart="220.00">
        <route edges="-27840840#2 -179109642#2 -179109642#1 27803780#1 27803780#2 340955662 -27570527#4 -27570527#3 -27570527#2 -4902394#2 -4902394#1 -4902394#0 28788362 549928642#0 -4902453"/>
    </vehicle>
    <vehicle id="bus23" type="bus" depart="230.00">
        <route edges="-28788361#2 -28885040#3 27570527#3 27570527#4 -340955662 -27803780#2 -28788366 -27840836 161392064#5 549345534 549815935 329013842 4559074#0 4559074#1 4559074#2 4559074#3 4559074#4 4559074#5 4559074#6 4559074#7 4559005#0 4559005#1 4559005#2 -550757841 -550741745 -550745968 -550732345 4877453 143331549#0 143331549#1 143331549#2"/>
    </vehicle>
    <vehicle id="bus24" type="bus" depart="240.00">
        <route edges="327764058 -4902394#5 -4902394#4 -4902394#3 27570527#2 27570527#3 27570527#4 -340955662 -27803780#2 -27803780#1 179109642#1 28788370#0 28788371#0 28788368#0 28788368#1 -27490680 319453543#1 319453543#2 161392073#0 161392072 319453543#4 319453543#5 319453543#6 161389765 161392059#0 550860119#2 -550865716 -4734472 221893217#0 221893217#1"/>
    </vehicle>
    <vehicle id="bus25" type="bus" depart="250.00">
        <route edges="-550867442#2 -550867442#1 -550867442#0 -229481708#2 -229481708#0 402922224 380438949#0 380438949#1 319447428#1 319447428#2 319447428#3 401773368 327956372 327956373#0 327956373#1 4902374#0 4902374#1 4902374#2 4902374#3 4902436#0 4902436#1 -4902428"/>
    </vehicle>
    <vehicle id="bus26" type="bus" depart="260.00">
        <route edges="-4902414#0 8154721#3 4902414#1 4902414#2 4902414#3 161389761#1 245553663#8 245553663#9 550749977 4559005#1 4559005#2 -550757841 -550741745 -550745968 -550732345 -550873590 4774365#0 -4774365#0 550873590 550732345 550745968 550741745 550757841 550725735#0 550756710#0 550756710#1 550747490"/>
    </vehicle>
    <vehicle id="bus27" type="bus" depart="270.00">
        <route edges="340955662 -340955662 -27803780#2 -27803780#1 179109642#1 28788370#0 28788371#0 28788368#0 28788368#1 -27490680 319453543#1 319453543#2 161392073#0 161392072 319453543#4 319453543#5 319453543#6 161389765 161392059#0 550860118#0 550860118#1 386278897"/>
    </vehicle>
    <vehicle id="bus28" type="bus" depart="280.00">
        <route edges="-386114209 -143331549#1 -143331549#0 4877450"/>
    </vehicle>
    <vehicle id="bus30" type="bus" depart="300.00">
        <route edges="96097829#0 438155977#0 438155977#1-AddedOnRampEdge 438155977#1"/>
    </vehicle>
    <vehicle id="bus32" type="bus" depart="320.00">
        <route edges="4902436#1 -4902428 8154721#1 8154721#2 8154721#3 4902414#1 4902414#2 4902414#3"/>
    </vehicle>
    <vehicle id="bus33" type="bus" depart="330.00">
        <route edges="-4774404 -4774365#0 550873590 550732345 550745968 550741745 550757841 550725735#0 550756710#0 550756710#1 550747490 4902378#0 4902378#1 549917967 319453543#0 319453543#1 319453543#2 161392073#0 161392072 319453543#4 319453543#5 319453543#6 161389765 161392059#0 550860119#2 -550865716 -4734472 221893217#0 221893217#1 -511815820 -221893285#1 -221893285#0"/>
    </vehicle>
    <vehicle id="bus34" type="bus" depart="340.00">
        <route edges="-518473674 518473673 -550732345 -550873590"/>
    </vehicle>
    <vehicle id="bus35" type="bus" depart="350.00">
        <route edges="-473691590#0 39368524#2 380438949#1 319447428#1 319447428#2 319447428#3 8148885#0 8148885#1 4559074#0 4559074#1 4559074#2 4559074#3 4559074#4 4559074#5 4559074#6 4559074#7 4559087 4559118 550753286 550753287#0 550753287#1"/>
    </vehicle>
    <vehicle id="bus36" type="bus" depart="360.00">
        <route edges="518473672 518473674 -518473674 518473673 -550732345 -550873590 4774365#0 -4774365#0 550873590 550732345 550745968 550741745 550757841 550725735#0 550756710#0 550756710#1 550747490 4902378#0 4902474 327956373#1 327956374 161392064#3 161392064#4 161392064#5"/>
    </vehicle>
    <vehicle id="bus38" type="bus" depart="380.00">
        <route edges="549928648#0 4902394#2 4902394#3 28788361#1 28788361#2 27570528#4"/>
    </vehicle>
    <vehicle id="bus39" type="bus" depart="390.00">
        <route edges="-4902399 4902418#2 4902418#3 4902418#4 -4902451#1 -4902436#0 4902416#0 4902416#2 161392064#3 161392064#4 161392064#5 319453543#0 319453543#1 319453543#2 161392073#0 161392072 319453543#4 319453543#5 319453543#6 161389765 161392059#0 550860119#2 -550865716 -4734472 221893217#0 -548651990#1 -548651990#0"/>
    </vehicle>
    <vehicle id="bus40" type="bus" depart="400.00">
        <route edges="27840840#2 -27840840#2 -27840840#1 -27840840#0 28788368#1 -27490680 319453543#1 319453543#2 161392073#0 161392072 319453543#4 319453543#5 319453543#6 161389765 161392059#0 550860119#2 -550865716"/>
    </vehicle>
    <vehicle id="bus43" type="bus" depart="430.00">
        <route edges="96097829#2 4523238 327754983 247833369#0 247833369#1 319447428#0 319447428#1 319447428#2 319447428#3 8148885#0 8148885#1 4559074#0 4559074#1 4559074#2 4559074#3 4559074#4 4559074#5 4559074#6 4559007 4902378#0 4902378#1 549917967 319453543#0 27490680 -28788368#1 -28788368#0 -28788371#0 28788370#1"/>
    </vehicle>
    <vehicle id="bus44" type="bus" depart="440.00">
        <route edges="-27840841#1 -27840841#0 -27803780#2 -27803780#1 179109642#1 28788370#0 28788371#0 28788368#0 28788368#1 -27490680 319453543#1 319453543#2 161392073#0 -27467656"/>
    </vehicle>
    <vehicle id="bus46" type="bus" depart="460.00">
        <route edges="4806304#2 327754983 4734476#0 4734476#1 319453545#0 319453545#1 249697090#0 249697090#1 249697090#2"/>
    </vehicle>
    <vehicle id="bus47" type="bus" depart="470.00">
        <route edges="-27570528#4 -27570528#3 27570527#4 -340955662 -27803780#2 -27803780#1 179109642#1 28788370#0 28788371#0 28788368#0 28788368#1 -27490680 319453543#1 161392075#2 245234799#6 245234799#0"/>
    </vehicle>
    <vehicle id="bus48" type="bus" depart="480.00">
        <route edges="96097829#1 96097829#2 4523238 327754983 247833369#0 247833369#1 319447428#0 319447428#1 319447428#2 319447428#3 401773368 327956372 327956373#0 327956373#1 327956374 27570528#0 27570528#1 549928648#3 -28885070#1 28885070#1"/>
    </vehicle>
    <vehicle id="bus51" type="bus" depart="510.00">
        <route edges="39368522#0 39368522#1 39368522#2 -518474575 -473691590#0 39368524#2 380438949#1 319447428#1 319447428#2 319447428#3"/>
    </vehicle>
    <vehicle id="bus53" type="bus" depart="530.00">
        <route edges="-28788368#1 28788368#1 -27490680 319453543#1 319453543#2 161392073#0 161392072 319453543#4 319453543#5 319453543#6 161389765 247833371#0 247833371#1-AddedOnRampEdge 247833371#1 161389762-AddedOnRampEdge 161389762 249870999"/>
    </vehicle>
    <vehicle id="bus55" type="bus" depart="550.00">
        <route edges="518473672 518473674 -518473674 518473673 -550732345 -550873590 4774365#0 -4774365#0 550873590 550732345 550745968 550741745 550757841 550725735#0 550756710#0 550756710#1 550747490 4902378#0 4902378#1 549917967 319453543#0 319453543#1 319453543#2 161392073#0 161392072 319453543#4 319453543#5 319453543#6 161389765 161392059#0 550860119#2 -550865716"/>
    </vehicle>
    <vehicle id="bus56" type="bus" depart="560.00">
        <route edges="245553663#5 245553663#6 245553663#7 245553663#8 245553663#9 418990606 4902378#0 4902378#1 549917967 319453543#0 27490680 27840838#0 27840838#1 -473691594"/>
    </vehicle>
    <vehicle id="bus57" type="bus" depart="570.00">
        <route edges="549928646#0 161392062 4902416#2 161392064#3 161392064#4 161392064#5 319453543#0 319453543#1 161392075#2 245234799#6 245234799#0 549915319"/>
    </vehicle>
    <vehicle id="bus61" type="bus" depart="610.00">
        <route edges="473684643 -473684642#0 327754983 247833369#0 247833369#1 319447428#0 319447428#1 319447428#2 319447428#3 401773368 327956372 327956373#0 327956373#1 327956374 27570528#0 27570528#1 549928648#3 -28885070#1 28885070#1"/>
    </vehicle>
    <vehicle id="bus64" type="bus" depart="640.00">
        <route edges="518473675 -518473675 4559074#4 4559074#5 4559074#6 4559074#7 4559005#0 4559005#1 4559005#2 -550757841 -550741745 518473672 518473674"/>
    </vehicle>
    <vehicle id="bus66" type="bus" depart="660.00">
        <route edges="518473673 -550732345 -550873590 4774365#0 -4774365#0 550873590 550732345 550745968 550741745 550757841 550725735#0 4559084 550753287#0 550753287#1 550753287#2 550753287#3 550753287#4"/>
    </vehicle>
    <vehicle id="bus67" type="bus" depart="670.00">
        <route edges="-27840840#4 340955664 27840841#0 27840841#1"/>
    </vehicle>
    <vehicle id="bus68" type="bus" depart="680.00">
        <route edges="-27803780#2 27803780#2 340955662 -27570527#4 -27570527#3 -27570527#2 4902394#3 4902394#4"/>
    </vehicle>
    <vehicle id="bus71" type="bus" depart="710.00">
        <route edges="-4902399 4902399 8154721#2 8154721#3 4902414#1 4902414#2 4902414#3 161389761#1 245553663#8 245553663#9 418990606 4902378#0 4902378#1 549917967"/>
    </vehicle>
    <vehicle id="bus72" type="bus" depart="720.00">
        <route edges="161392074 161392081 161392075#1 161392075#2 245234799#6 245234799#0 549915319 327956372 327956373#0 327956373#1 4902374#0 4902374#1 4902374#2 4902374#3 4902436#0 -4902436#0"/>
    </vehicle>
    <vehicle id="bus73" type="bus" depart="730.00">
        <route edges="27570527#2 27570527#3 27570527#4 -340955662 -27803780#2 -28788366 -27840836 161392064#5 549345534 549815935 329013842 4559074#0 4559074#1 4559074#2 4559074#3 4559074#4 4559074#5 4559074#6 4559074#7 4559005#0 4559005#1 4559005#2 -550757841 -550741745 -550745968 -550732345 4877453 4877450"/>
    </vehicle>
    <vehicle id="bus74" type="bus" depart="740.00">
        <route edges="-473684642#0 327754983 247833369#0 247833369#1 319447428#0 319447428#1 319447428#2 319447428#3 401773368 327956372 327956373#0 327956373#1 327956374 161392064#3"/>
    </vehicle>
    <vehicle id="bus75" type="bus" depart="750.00">
        <route edges="96097829#0 96097829#1 96097829#2 4523238 327754983 247833369#0 247833369#1 319447428#0 319447428#1 319447428#2 319447428#3 8148885#0 8148885#1 4559074#0 4559074#1 4559074#2 4559074#3 4559074#4 4559074#5 4559074#6 4559074#7 4559005#0"/>
    </vehicle>
    <vehicle id="bus77" type="bus" depart="770.00">
        <route edges="-28885040#2 -549928648#1 -4902394#1 -4902394#0 28788362 549928646#0 161392062 4902374#3 4902436#0 -4902451#0"/>
    </vehicle>
    <vehicle id="bus79" type="bus" depart="790.00">
        <route edges="-4774404 -4774365#0 550873590 550732345 550745968 550741745 550757841 550725735#0 550756710#0 550756710#1 550747490 4902378#0 4902474 327956373#1 327956374 549928635 549928642#0 549928642#1 549928642#2 -4902441"/>
    </vehicle>
    <vehicle id="bus82" type="bus" depart="820.00">
        <route edges="4902447 -4902447 4902451#0 -4902436#0 4902416#0 4902416#2 161392064#3 161392064#4 27840836 -27840840#2 -27840840#1 -28788371#1 -28788371#0 28788370#1 27840838#1 -27840838#1"/>
    </vehicle>
    <vehicle id="bus85" type="bus" depart="850.00">
        <route edges="550712034 4806304#2 327754983 247833369#0 247833369#1 319447428#0 319447428#1 319447428#2 319447428#3 401773368 327956372 327956373#0"/>
    </vehicle>
    <vehicle id="bus86" type="bus" depart="860.00">
        <route edges="229481708#2 -229481708#2 -229481708#0 402922224 380438949#0 380438949#1 319447428#1 319447428#2 319447428#3 401773368 327956372 327956373#0 327956373#1 4902374#0 4902374#1 4902374#2 4902374#3 4902436#0 4902436#1 4902421"/>
    </vehicle>
    <vehicle id="bus87" type="bus" depart="870.00">
        <route edges="4902391 4902418#1 4902418#2 4902418#3 4902418#4 -4902451#1 -4902436#0 -549928646#1 -549928646#0 -28788362 4902394#0 4902394#1 4902394#2 4902394#3 -4902394#3"/>
    </vehicle>
    <vehicle id="bus88" type="bus" depart="880.00">
        <route edges="-27840841#1 -27840841#0 -27803780#2 -27803780#1 179109642#1 28788370#0 28788371#0 28788368#0 28788368#1 -27490680 319453543#1 319453543#2 161392073#0 161392072 319453543#4 319453543#5 319453543#6 161389765 247833371#0 247833371#1-AddedOnRampEdge 247833371#1 161389762-AddedOnRampEdge 161389762 249870999"/>
    </vehicle>
    <vehicle id="bus89" type="bus" depart="890.00">
        <route edges="161392075#0 161392075#1 161392075#2 245234799#6 161392080 329013842 4559074#0 4559074#1 4559074#2 4559074#3 4559074#4 4559074#5 4559074#6 4559007 4902378#0 4902378#1 549917967 319453543#0 27490680 27840838#0 27840838#1"/>
    </vehicle>
    <vehicle id="bus91" type="bus" depart="910.00">
        <route edges="8154721#2 -8154721#2 -8154721#1 4902428 -4902436#1 -4902436#0 4902416#0 4902416#2 161392064#3 161392064#4 27840836 -27840840#2 -27840840#1 -28788371#1"/>
    </vehicle>
    <vehicle id="bus93" type="bus" depart="930.00">
        <route edges="4902451#1 -4902451#1 -4902436#0 -549928646#1 -549928646#0"/>
    </vehicle>
    <vehicle id="bus94" type="bus" depart="940.00">
        <route edges="-39368522#2 39368522#2 -518474575 -473691590#0 39368524#2 380438949#1 319447428#1 319447428#2 319447428#3 401773368 327956372 327956373#0 327956373#1 327956374 27570528#0"/>
    </vehicle>
    <vehicle id="bus96" type="bus" depart="960.00">
        <route edges="-4902394#0 161392064#0 161392064#1 161392064#3 161392064#4 161392064#5 549345534 549815935 329013842 4559074#0 4559074#1 4559074#2 4559074#3 4559074#4 4559074#5 4559074#6 4559074#7 4559005#0 4559005#1 4559005#2 -550757841 -550741745 -550745968 -550732345 -550873590 4774365#0 -4774365#0 550873590 550732345 550745968 550741745 550757841 550725735#0"/>
    </vehicle>
    <vehicle id="bus98" type="bus" depart="980.00">
        <route edges="27803780#1 -27803780#1 179109642#1 28788370#0 28788371#0 28788368#0 28788368#1 -27490680"/>
    </vehicle>
    <vehicle id="bus102" type="bus" depart="1020.00">
        <route edges="245546867 229481708#0 -229481708#0 402922224 380438949#0 380438949#1 319447428#1 319447428#2 319447428#3 401773368 327956372 327956373#0 327956373#1 4902374#0 4902374#1 4902374#2 4902374#3 4902436#0 4902436#1 -4902436#1"/>
    </vehicle>
    <vehicle id="bus104" type="bus" depart="1040.00">
        <route edges="-8154721#0 -4902377#0 8154721#1 8154721#2 8154721#3"/>
    </vehicle>
    <vehicle id="bus105" type="bus" depart="1050.00">
        <route edges="-4902399 4902418#2 4902418#3 4902418#4"/>
    </vehicle>
    <vehicle id="bus106" type="bus" depart="1060.00">
        <route edges="221893257 511815820 -221893217#1 -221893217#0 4734472 550865716 161389764 550860118#1 550860118#2 550860118#3 249697090#0 249697090#1 249697090#2"/>
    </vehicle>
    <vehicle id="bus111" type="bus" depart="1110.00">
        <route edges="27570527#4 -27570527#4 -27570527#3 -27570527#2 -4902394#2 -4902394#1 -4902394#0 28788362 549928646#0 161392062 4902374#3 4902436#0 -4902451#0 4902447 4902377#2"/>
    </vehicle>
    <vehicle id="bus113" type="bus" depart="1130.00">
        <route edges="245553663#7 245553663#8 245553663#9 418990606 4902378#0 4902378#1 549917967 549345534 549815935 329013842 4559074#0 4559074#1 4559074#2 4559074#3 4559074#4 518473679 518473678"/>
    </vehicle>
    <vehicle id="bus115" type="bus" depart="1150.00">
        <route edges="-27840840#2 -179109642#2 -179109642#1 27803780#1 27803780#2 340955662 -27570527#4 -27570527#3 -27570527#2 -4902394#2 -4902394#1 -4902394#0"/>
    </vehicle>
    <vehicle id="bus118" type="bus" depart="1180.00">
        <route edges="548651990#0 -548651990#0"/>
    </vehicle>
    <vehicle id="bus121" type="bus" depart="1210.00">
        <route edges="249871000 247833367 161392066 319447428#0 319447428#1 319447428#2 319447428#3 8148885#0 8148885#1 4559074#0 4559074#1 4559074#2 4559074#3 4559074#4 4559074#5 4559074#6 4559074#7 4559005#0 4559005#1 4559005#2 -550757841 -550741745 -550745968 -550732345 -550873590 4774365#0 -4774365#0 550873590 550732345 550745968 550741745"/>
    </vehicle>
    <vehicle id="bus122" type="bus" depart="1220.00">
        <route edges="-473691589 39368522#2 -518474575 -473691590#0 39368524#2 380438949#1 319447428#1 319447428#2 319447428#3 8148885#0 8148885#1 4559074#0 4559074#1 4559074#2 4559074#3 4559074#4 4559074#5 4559074#6 4559074#7 4559005#0 4559005#1 4559005#2 -550757841 -550741745 -550745968 -550732345 -550873590 4774365#0 4774404"/>
    </vehicle>
    <vehicle id="bus125" type="bus" depart="1250.00">
        <route edges="-518473675 4559074#4 4559074#5 4559074#6 4559007 4902378#0 4902474 327956373#1 4902374#0 4902374#1 4902374#2 4902374#3 4902436#0 4902436#1 -4902428 8154721#1 8154721#2 8154721#3 4902373 4902391"/>
    </vehicle>
    <vehicle id="bus126" type="bus" depart="1260.00">
        <route edges="-27840838#0 -28788368#1 -28788368#0 -28788371#0 -28788370#0 -179109642#1 27803780#1 27803780#2 340955662 -27570527#4 27570528#3 27570528#4"/>
    </vehicle>
    <vehicle id="bus128" type="bus" depart="1280.00">
        <route edges="-27840838#1 27840838#1 27840838#2 27803780#0 27803780#1 27803780#2 340955662 -27570527#4 -27570527#3 -27570527#2 -4902394#2 -4902394#1 -4902394#0 28788362 549928646#0 161392062 4902374#3 4902436#0 4902436#1 -4902436#1"/>
    </vehicle>
    <vehicle id="bus129" type="bus" depart="1290.00">
        <route edges="-4902399 4902399 8154721#2 8154721#3 4902414#1 4902414#2 4902414#3 161389761#1 245553663#8 245553663#9 550749977 4559005#1 386223029 550735550"/>
    </vehicle>
    <vehicle id="bus130" type="bus" depart="1300.00">
        <route edges="518473679 -518473675 4559074#4 4559074#5 4559074#6 4559007 4902378#0 4902474 327956373#1 327956374 549928635 549928642#0 549928642#1 549928642#2 549928642#3"/>
    </vehicle>
    <vehicle id="bus131" type="bus" depart="1310.00">
        <route edges="-550867442#2 -550867442#1 -550867442#0 -229481708#2 -229481708#0 402922224 380438949#0 380438949#1 319447428#1 319447428#2 319447428#3 8148885#0 8148885#1 4559074#0 4559074#1 4559074#2 4559074#3 4559074#4 4559074#5 4559074#6 4559074#7 4559005#0 4559005#1 4559005#2 -550757841 -550741745 -550745968 -550732345 -550873590 -462566123"/>
    </vehicle>
    <vehicle id="bus132" type="bus" depart="1320.00">
        <route edges="4902418#4 -4902418#4 4902431 -4902428 8154721#1 8154721#2 8154721#3 4902414#1 4902414#2 4902414#3 161389761#1 245553663#8 245553663#9 550749977 4559005#1 4559005#2 -550757841 -550741745 -550745968 -550732345 -550873590 4774365#0"/>
    </vehicle>
    <vehicle id="bus133" type="bus" depart="1330.00">
        <route edges="319447428#2 319447428#3 401773368 327956372 327956373#0 327956373#1 4902374#0 4902374#1 -8154723 8154723"/>
    </vehicle>
    <vehicle id="bus135" type="bus" depart="1350.00">
        <route edges="4902394#5 -4902394#5 -4902394#4 -4902394#3 -4902394#2 -4902394#1 -4902394#0 28788362 549928646#0 161392062 4902374#3 4902436#0 4902436#1 -4902428 8154721#1 8154721#2 8154721#3 4902414#1 4902414#2 4902414#3 161389761#1 161389761#2"/>
    </vehicle>
    <vehicle id="bus137" type="bus" depart="1370.00">
        <route edges="-28885055#1 -28885055#0 27803780#2 340955662 -28885070#1 -28885070#0"/>
    </vehicle>
    <vehicle id="bus139" type="bus" depart="1390.00">
        <route edges="-4902418#0 4902370 8154721#3 4902414#1 4902414#2 4902414#3 161389761#1 245553663#8 245553663#9 550749977 4559005#1 386223029"/>
    </vehicle>
    <vehicle id="bus140" type="bus" depart="1400.00">
        <route edges="4559074#2 4559074#3 4559074#4 4559074#5 4559074#6 4559007 4902378#0 4902474 327956373#1 4902374#0 4902374#1 4902374#2 4902374#3 4902436#0 4902451#1 -4902418#4 -4902418#3 -4902418#2"/>
    </vehicle>
    <vehicle id="bus143" type="bus" depart="1430.00">
        <route edges="4902440#1 161389761#0 161389761#1 245553663#8 245553663#9 418990606 4902378#0 4902378#1 549917967 319453543#0 27490680 -28788368#1 -28788368#0"/>
    </vehicle>
    <vehicle id="bus144" type="bus" depart="1440.00">
        <route edges="161392075#0 161392075#1 161392075#2 245234799#6 161392080 329013842 4559074#0 4559074#1 4559074#2 4559074#3 4559074#4 4559074#5 4559074#6 4559074#7 4559005#0 4559005#1 4559005#2 -550757841 -550741745 -550745968 -550732345 4877453 143331549#0 143331549#1 143331549#2"/>
    </vehicle>
    <vehicle id="bus146" type="bus" depart="1460.00">
        <route edges="327764059#0 327764059#1 161392064#0 161392064#1 161392064#3 161392064#4 161392064#5 549345534 549815935 329013842 4559074#0 4559074#1 4559074#2 4559074#3 4559074#4 4559074#5 4559074#6 4559074#7 4559005#0 4559005#1 4559005#2 -550757841"/>
    </vehicle>
    <vehicle id="bus149" type="bus" depart="1490.00">
        <route edges="-27840838#2 27840838#2 27803780#0 27803780#1 27803780#2 340955662 -27570527#4 -27570527#3 -27570527#2 -27570527#1 28788360#2 549928648#0"/>
    </vehicle>
    <vehicle id="bus150" type="bus" depart="1500.00">
        <route edges="549917967 319453543#0 319453543#1 319453543#2 161392073#0 161392072 319453543#4 319453543#5 319453543#6"/>
    </vehicle>
    <vehicle id="bus155" type="bus" depart="1550.00">
        <route edges="549345534 549815935 327956372 327956373#0 327956373#1 4902374#0 4902374#1 4902374#2 4902374#3 -4902433"/>
    </vehicle>
    <vehicle id="bus156" type="bus" depart="1560.00">
        <route edges="-4902394#0 4902394#0 4902394#1 4902394#2 27570527#2 -28885040#2"/>
    </vehicle>
    <vehicle id="bus157" type="bus" depart="1570.00">
        <route edges="473684643 -473684642#0 327754983 247833369#0 247833369#1 319447428#0 319447428#1 319447428#2 319447428#3 401773368 327956372 327956373#0 327956373#1 327956374 27570528#0 -28788365#2 -28788365#1 4902394#1 549928648#1"/>
    </vehicle>
    <vehicle id="bus161" type="bus" depart="1610.00">
        <route edges="4902394#0 -4902394#0 28788362 549928646#0 549928646#1"/>
    </vehicle>
    <vehicle id="bus162" type="bus" depart="1620.00">
        <route edges="-179109642#2 179109642#2 27840840#2 -27840836 161392064#5 549345534 549815935 329013842 4559074#0 4559074#1 4559074#2 4559074#3 4559074#4 4559074#5 4559074#6 4559074#7 4559005#0 4559005#1 4559005#2 -550757841 -550741745 -550745968 -550732345 4877453 143331549#0 4877455"/>
    </vehicle>
    <vehicle id="bus163" type="bus" depart="1630.00">
        <route edges="-518473679 4559074#5 4559074#6 4559074#7 4559005#0 4559005#1 386223029 550735550"/>
    </vehicle>
    <vehicle id="bus165" type="bus" depart="1650.00">
        <route edges="4902394#0 -4902394#0 161392064#0 161392064#1 161392064#3 161392064#4 161392064#5 549345534 549815935 329013842 4559074#0 4559074#1 4559074#2 4559074#3 4559074#4 4559074#5 4559074#6 4559074#7 4559005#0 4559005#1 4559005#2 -550757841 -550741745 -550745968 -550732345 -550873590"/>
    </vehicle>
    <vehicle id="bus168" type="bus" depart="1680.00">
        <route edges="-4774365#1 -4774365#0 550873590 550732345 550745968 550741745 550757841 550725735#0 550756710#0 550756710#1 550747490 4902378#0 4902378#1 549917967 319453543#0 319453543#1 319453543#2 161392073#0 161392072 319453543#4 319453543#5 319453543#6 161389765 161392059#0 550860119#2 -550865716 -4734472 221893217#0 -548651990#1 490522132"/>
    </vehicle>
    <vehicle id="bus170" type="bus" depart="1700.00">
        <route edges="4902370 -8154721#2 -8154721#1 4902428 -4902436#1 -4902436#0 -549928646#1 -549928646#0 549928642#0 -4902453"/>
    </vehicle>
    <vehicle id="bus171" type="bus" depart="1710.00">
        <route edges="-179109642#1 27803780#1 27803780#2 340955662 -27570527#4 -27570527#3 -27570527#2 4902394#3 4902394#4 4902394#5 -4902394#5"/>
    </vehicle>
    <vehicle id="bus174" type="bus" depart="1740.00">
        <route edges="327956373#0 327956373#1 4902374#0 4902374#1 4902374#2 4902374#3 -4902433 245553663#4 245553663#5"/>
    </vehicle>
    <vehicle id="bus176" type="bus" depart="1760.00">
        <route edges="550712036#1 4806304#1 4806304#2 327754983 247833369#0 247833369#1 319447428#0 319447428#1 319447428#2 319447428#3 401773368 327956372 327956373#0 327956373#1 327956374 27570528#0 27570528#1 549928648#3 -28885070#1 -28885070#0"/>
    </vehicle>
    <vehicle id="bus179" type="bus" depart="1790.00">
        <route edges="-28788366 -27840840#2 -27840840#1 -27840840#0 28788368#1 -27490680 319453543#1 319453543#2 161392073#0 161392072 319453543#4 319453543#5 319453543#6 161389765 247833371#0 247833371#1-AddedOnRampEdge 247833371#1 161389762-AddedOnRampEdge 161389762 249870999"/>
    </vehicle>
    <vehicle id="bus180" type="bus" depart="1800.00">
        <route edges="4559118 550753286 418990606 4902378#0 4902474 327956373#1 327956374 161392064#3 161392064#4 161392064#5"/>
    </vehicle>
    <vehicle id="bus181" type="bus" depart="1810.00">
        <route edges="28885070#1 -340955662 -27803780#2 -27803780#1 179109642#1 28788370#0 28788371#0 28788371#1"/>
    </vehicle>
    <vehicle id="bus183" type="bus" depart="1830.00">
        <route edges="-4902394#4 -4902394#3 -4902394#2 -4902394#1 -4902394#0 161392064#0 161392064#1 161392064#3 161392064#4 161392064#5 549345534 549815935 329013842 4559074#0 4559074#1 4559074#2 4559074#3 4559074#4 4559074#5 4559074#6 4559074#7 4559005#0 4559005#1 4559005#2 -550757841 -550741745 -550745968 -550732345 -550873590 4774365#0 4774365#1"/>
    </vehicle>
    <vehicle id="bus186" type="bus" depart="1860.00">
        <route edges="462566123 550873590 550732345 550745968 550741745 550757841 550725735#0 550756710#0 462564634"/>
    </vehicle>
    <vehicle id="bus187" type="bus" depart="1870.00">
        <route edges="-550757841 -550741745 -550745968 -550732345 -550873590 4774365#0 -4774365#0 550873590 550732345 550745968 550741745 550757841 550725735#0 550756710#0 550756710#1 550747490 4902378#0 4902378#1 549917967 319453543#0 27490680 27840838#0 -27840838#0"/>
    </vehicle>
    <vehicle id="bus188" type="bus" depart="1880.00">
        <route edges="344144147#0 473684641#0 473684641#1 550712035 -550712033 -550867442#1 -550867442#0 -229481708#2 -229481708#0 402922224 380438949#0 380438949#1 319447428#1 319447428#2 319447428#3 8148885#0 8148885#1 4559074#0 4559074#1 4559074#2 4559074#3 4559074#4 4559074#5 4559074#6 4559007 4902378#0 4902378#1 549917967 319453543#0 319453543#1 319453543#2 161392073#0"/>
    </vehicle>
    <vehicle id="bus189" type="bus" depart="1890.00">