<?xml version="1.0"?>
<!-- generated on 2018-01-15 22:06:21.914386 by $Id: randomTrips.py 23999 2017-04-21 09:04:47Z behrisch $
  options: create
-->
<routes xmlns:xsi="http://www.w3.org/2001/XMLSchema-instance" xsi:noNamespaceSchemaLocation="http://sumo.dlr.de/xsd/routes_file.xsd">
    <vType id="bus" vClass="bus" />
    <trip id="bus0" depart="0.00" from="27558694" to="-143331551#4" type="bus"/>
    <trip id="bus1" depart="3.00" from="109496226#2" to="-157423551#0" type="bus"/>
    <trip id="bus2" depart="6.00" from="-345332043#1" to="245234796#2" type="bus"/>
    <trip id="bus3" depart="9.00" from="-156251563" to="-28885076#0" type="bus"/>
    <trip id="bus4" depart="12.00" from="-351479491" to="27558789#2" type="bus"/>
    <trip id="bus5" depart="15.00" from="39368522#2" to="-122735160#0" type="bus"/>
    <trip id="bus6" depart="18.00" from="-4770196#0" to="-27571744" type="bus"/>
    <trip id="bus7" depart="21.00" from="-229481708#0" to="-244074953#1" type="bus"/>
    <trip id="bus8" depart="24.00" from="4629513#0" to="27571482" type="bus"/>
    <trip id="bus9" depart="27.00" from="386278945" to="386113080" type="bus"/>
    <trip id="bus10" depart="30.00" from="221893285#0" to="549941138#0" type="bus"/>
    <trip id="bus11" depart="33.00" from="-4902450#4" to="252482715#3" type="bus"/>
    <trip id="bus12" depart="36.00" from="426799412#3" to="27571850#3" type="bus"/>
    <trip id="bus13" depart="39.00" from="47221489" to="27490676" type="bus"/>
    <trip id="bus14" depart="42.00" from="27951305#3" to="-157483950#0" type="bus"/>
    <trip id="bus15" depart="45.00" from="-386113080" to="-473691601#0" type="bus"/>
    <trip id="bus16" depart="48.00" from="-221893235" to="-386114193" type="bus"/>
    <trip id="bus17" depart="51.00" from="-245234796#0" to="-4727809#5" type="bus"/>
    <trip id="bus18" depart="54.00" from="27490670#1" to="10787528" type="bus"/>
    <trip id="bus19" depart="57.00" from="-386114781" to="501500253" type="bus"/>
    <trip id="bus20" depart="60.00" from="-27840841#0" to="386113080" type="bus"/>
    <trip id="bus21" depart="63.00" from="-27572173#0" to="122735168#1" type="bus"/>
    <trip id="bus22" depart="66.00" from="550860118#0" to="27951260" type="bus"/>
    <trip id="bus23" depart="69.00" from="245234770#3" to="28885040#1" type="bus"/>
    <trip id="bus24" depart="72.00" from="4559084" to="386223027" type="bus"/>
    <trip id="bus25" depart="75.00" from="-345049503" to="511817674" type="bus"/>
    <trip id="bus26" depart="78.00" from="27570527#3" to="143331551#7" type="bus"/>
    <trip id="bus27" depart="81.00" from="4806304#0" to="183017632" type="bus"/>
    <trip id="bus28" depart="84.00" from="-386114779#1" to="-386278913#1" type="bus"/>
    <trip id="bus29" depart="87.00" from="247833371#1-AddedOnRampEdge" to="4902373" type="bus"/>
    <trip id="bus30" depart="90.00" from="-523058452" to="-351479491" type="bus"/>
    <trip id="bus31" depart="93.00" from="96097829#0" to="245234850#2" type="bus"/>
    <trip id="bus32" depart="96.00" from="-229479575#1" to="-157483950#2" type="bus"/>
    <trip id="bus33" depart="99.00" from="-249697140" to="27572161" type="bus"/>
    <trip id="bus34" depart="102.00" from="386114193" to="157642287#1" type="bus"/>
    <trip id="bus35" depart="105.00" from="-168645103#1" to="122735176#2" type="bus"/>
    <trip id="bus36" depart="108.00" from="8430747" to="248521874#0" type="bus"/>
    <trip id="bus37" depart="111.00" from="27571849#5" to="249697090#3" type="bus"/>
    <trip id="bus38" depart="114.00" from="-386114781" to="27951260" type="bus"/>
    <trip id="bus39" depart="117.00" from="143331551#4" to="522933336" type="bus"/>
    <trip id="bus40" depart="120.00" from="4734472" to="-458268603" type="bus"/>
    <trip id="bus41" depart="123.00" from="161392075#1" to="-27951322#1" type="bus"/>
    <trip id="bus42" depart="126.00" from="4774376" to="475370191#0" type="bus"/>
    <trip id="bus43" depart="129.00" from="-443606344" to="27840841#3" type="bus"/>
    <trip id="bus44" depart="132.00" from="250338867" to="-27571495#0" type="bus"/>
    <trip id="bus45" depart="135.00" from="344144147#2" to="249697138" type="bus"/>
    <trip id="bus46" depart="138.00" from="360359321#0" to="248521901" type="bus"/>
    <trip id="bus47" depart="141.00" from="-10785858#1" to="-4902394#7" type="bus"/>
    <trip id="bus48" depart="144.00" from="-122735192" to="4902474" type="bus"/>
    <trip id="bus49" depart="147.00" from="4734476#0" to="466974189" type="bus"/>
    <trip id="bus50" depart="150.00" from="-466974189" to="-157643731#0" type="bus"/>
    <trip id="bus51" depart="153.00" from="-221893275" to="229481708#2" type="bus"/>
    <trip id="bus52" depart="156.00" from="345328736" to="-27467658#0" type="bus"/>
    <trip id="bus53" depart="159.00" from="157483950#0" to="252482711#2" type="bus"/>
    <trip id="bus54" depart="162.00" from="-386114779#2" to="476128412#1" type="bus"/>
    <trip id="bus55" depart="165.00" from="122735128#1" to="-345328749#1" type="bus"/>
    <trip id="bus56" depart="168.00" from="229479575#1" to="386114158" type="bus"/>
    <trip id="bus57" depart="171.00" from="-28885076#2" to="-486221978" type="bus"/>
    <trip id="bus58" depart="174.00" from="8154721#2" to="27951311" type="bus"/>
    <trip id="bus59" depart="177.00" from="122735176#1" to="245553663#15" type="bus"/>
    <trip id="bus60" depart="180.00" from="-4770193" to="27558788#2" type="bus"/>
    <trip id="bus61" depart="183.00" from="-386114158" to="-358457707#0" type="bus"/>
    <trip id="bus62" depart="186.00" from="-221888727" to="27572173#1" type="bus"/>
    <trip id="bus63" depart="189.00" from="-386113080" to="4902401" type="bus"/>
    <trip id="bus64" depart="192.00" from="472142225" to="-168645104#0" type="bus"/>
    <trip id="bus65" depart="195.00" from="-386114163" to="27952559#1" type="bus"/>
    <trip id="bus66" depart="198.00" from="-345328742#1" to="-27558694" type="bus"/>
    <trip id="bus67" depart="201.00" from="157483947#1" to="386579161" type="bus"/>
    <trip id="bus68" depart="204.00" from="386579171" to="-28788374#0" type="bus"/>
    <trip id="bus69" depart="207.00" from="-244074953#0" to="161389756#0" type="bus"/>
    <trip id="bus70" depart="210.00" from="122735130" to="221893219#2" type="bus"/>
    <trip id="bus71" depart="213.00" from="550725735#0" to="-245234780" type="bus"/>
    <trip id="bus72" depart="216.00" from="-53172877#1" to="-4902450#3" type="bus"/>
    <trip id="bus73" depart="219.00" from="47221489" to="-39368522#0" type="bus"/>
    <trip id="bus74" depart="222.00" from="-28788374#1" to="162154116#2" type="bus"/>
    <trip id="bus75" depart="225.00" from="109496226#2" to="-4727809#7" type="bus"/>
    <trip id="bus76" depart="228.00" from="122735201#0" to="473691601#0" type="bus"/>
    <trip id="bus77" depart="231.00" from="24184195#3" to="-157642252" type="bus"/>
    <trip id="bus78" depart="234.00" from="531846850" to="4902451#0" type="bus"/>
    <trip id="bus79" depart="237.00" from="4629513#1" to="-27572156" type="bus"/>
    <trip id="bus80" depart="240.00" from="-523061813" to="-157643732#0" type="bus"/>
    <trip id="bus81" depart="243.00" from="-4902450#4" to="550860119#2" type="bus"/>
    <trip id="bus82" depart="246.00" from="-386114779#2" to="386579161" type="bus"/>
    <trip id="bus83" depart="249.00" from="157422557#0" to="157642287#4" type="bus"/>
    <trip id="bus84" depart="252.00" from="506271618#3" to="88497949#1" type="bus"/>
    <trip id="bus85" depart="255.00" from="245234770#11" to="345332018#1" type="bus"/>
    <trip id="bus86" depart="258.00" from="-27571857" to="-4770189#0" type="bus"/>
    <trip id="bus87" depart="261.00" from="531846850" to="27558703" type="bus"/>
    <trip id="bus88" depart="264.00" from="229481726#0" to="386114184#0" type="bus"/>
    <trip id="bus89" depart="267.00" from="-157643733#2" to="27558754#1" type="bus"/>
    <trip id="bus90" depart="270.00" from="-27572156" to="528715329" type="bus"/>
    <trip id="bus91" depart="273.00" from="-221893237" to="-28031869#3" type="bus"/>
    <trip id="bus92" depart="276.00" from="248870340#0" to="28788368#1" type="bus"/>
    <trip id="bus93" depart="279.00" from="248521923#3" to="27571852" type="bus"/>
    <trip id="bus94" depart="282.00" from="183017632" to="501498999" type="bus"/>
    <trip id="bus95" depart="285.00" from="-327764057#2" to="345328748" type="bus"/>
    <trip id="bus96" depart="288.00" from="-386114164" to="143331551#7" type="bus"/>
    <trip id="bus97" depart="291.00" from="27571486" to="-4770191#7" type="bus"/>
    <trip id="bus98" depart="294.00" from="-221888735" to="183017602" type="bus"/>
    <trip id="bus99" depart="297.00" from="96097834" to="88497949#2" type="bus"/>
    <trip id="bus100" depart="300.00" from="-221893210#1" to="-345332018#0" type="bus"/>
    <trip id="bus101" depart="303.00" from="-386114779#2" to="501498996" type="bus"/>
    <trip id="bus102" depart="306.00" from="-4902433#5" to="-27571848#3" type="bus"/>
    <trip id="bus103" depart="309.00" from="250338892" to="550867442#2" type="bus"/>
    <trip id="bus104" depart="312.00" from="27570526#1" to="-122735162" type="bus"/>
    <trip id="bus105" depart="315.00" from="409581860#9" to="-4770191#5" type="bus"/>
    <trip id="bus106" depart="318.00" from="27571469#0" to="501500451" type="bus"/>
    <trip id="bus107" depart="321.00" from="-27570527#2" to="-252482715#5" type="bus"/>
    <trip id="bus108" depart="324.00" from="-249697087#2" to="252482715#6" type="bus"/>
    <trip id="bus109" depart="327.00" from="-386114797" to="27571483#3" type="bus"/>
    <trip id="bus110" depart="330.00" from="27951333#0" to="-327764057#2" type="bus"/>
    <trip id="bus111" depart="333.00" from="27467656" to="-458268603" type="bus"/>
    <trip id="bus112" depart="336.00" from="458268603" to="-229481708#0" type="bus"/>
    <trip id="bus113" depart="339.00" from="122735130" to="-4727809#11" type="bus"/>
    <trip id="bus114" depart="342.00" from="-10786728#1" to="386114790" type="bus"/>
    <trip id="bus115" depart="345.00" from="27490672#2" to="-442027004#0" type="bus"/>
    <trip id="bus116" depart="348.00" from="-221893215#2" to="4774370#1" type="bus"/>
    <trip id="bus117" depart="351.00" from="4770193" to="250338817#5" type="bus"/>
    <trip id="bus118" depart="354.00" from="-27571848#0" to="-27467655#1" type="bus"/>
    <trip id="bus119" depart="357.00" from="386114775#1" to="473691590#1" type="bus"/>
    <trip id="bus120" depart="360.00" from="386113076#0" to="4774404" type="bus"/>
    <trip id="bus121" depart="363.00" from="-550735550" to="27571855#1" type="bus"/>
    <trip id="bus122" depart="366.00" from="-27571856" to="490522132" type="bus"/>
    <trip id="bus123" depart="369.00" from="4727807#4" to="550712035" type="bus"/>
    <trip id="bus124" depart="372.00" from="-473691620#2" to="494424630" type="bus"/>
    <trip id="bus125" depart="375.00" from="386114789" to="473691606#1" type="bus"/>
    <trip id="bus126" depart="378.00" from="39368524#1" to="-466974166#0" type="bus"/>
    <trip id="bus127" depart="381.00" from="386114186#0" to="-248521917#0" type="bus"/>
    <trip id="bus128" depart="384.00" from="4727809#9" to="473684642#0" type="bus"/>
    <trip id="bus129" depart="387.00" from="-358457707#2" to="4559087" type="bus"/>
    <trip id="bus130" depart="390.00" from="157423552#0" to="-4774366" type="bus"/>
    <trip id="bus131" depart="393.00" from="-143331551#4" to="-28788382#3" type="bus"/>
    <trip id="bus132" depart="396.00" from="523057042" to="-4727809#9" type="bus"/>
    <trip id="bus133" depart="399.00" from="27558745" to="157422557#1" type="bus"/>
    <trip id="bus134" depart="402.00" from="549941138#0" to="249697090#0" type="bus"/>
    <trip id="bus135" depart="405.00" from="4902428" to="-252482715#5" type="bus"/>
    <trip id="bus136" depart="408.00" from="543344250#0" to="-27951322#1" type="bus"/>
    <trip id="bus137" depart="411.00" from="519339286#0" to="-466974156#0" type="bus"/>
    <trip id="bus138" depart="414.00" from="-249697138" to="161392064#1" type="bus"/>
    <trip id="bus139" depart="417.00" from="-506271618#2" to="27490672#1" type="bus"/>
    <trip id="bus140" depart="420.00" from="-386114191" to="344113927" type="bus"/>
    <trip id="bus141" depart="423.00" from="-10785858#5" to="4902450#4" type="bus"/>
    <trip id="bus142" depart="426.00" from="229479575#0" to="345332038" type="bus"/>
    <trip id="bus143" depart="429.00" from="312299088#2" to="28788359#0" type="bus"/>
    <trip id="bus144" depart="432.00" from="27571470#0" to="-4902423" type="bus"/>
    <trip id="bus145" depart="435.00" from="27951336" to="-4770191#9" type="bus"/>
    <trip id="bus146" depart="438.00" from="-47221488" to="157483942#2" type="bus"/>
    <trip id="bus147" depart="441.00" from="-27490680" to="157642274#1" type="bus"/>
    <trip id="bus148" depart="444.00" from="4770191#7" to="27571848#4" type="bus"/>
    <trip id="bus149" depart="447.00" from="-466974156#0" to="250338875" type="bus"/>
    <trip id="bus150" depart="450.00" from="-10785858#0" to="-473684642#1" type="bus"/>
    <trip id="bus151" depart="453.00" from="122735160#0" to="27558703" type="bus"/>
    <trip id="bus152" depart="456.00" from="122735194#1" to="-345332022" type="bus"/>
    <trip id="bus153" depart="459.00" from="157483949#0" to="4902378#0" type="bus"/>
    <trip id="bus154" depart="462.00" from="386114775#0" to="-27572173#0" type="bus"/>
    <trip id="bus155" depart="465.00" from="-221893275" to="245546867" type="bus"/>
    <trip id="bus156" depart="468.00" from="27467650#1" to="-4902436#0" type="bus"/>
    <trip id="bus157" depart="471.00" from="409581862#3" to="386114188#4" type="bus"/>
    <trip id="bus158" depart="474.00" from="27571488#3" to="-386114159#1" type="bus"/>
    <trip id="bus159" depart="477.00" from="-28885055#0" to="-143331551#2" type="bus"/>
    <trip id="bus160" depart="480.00" from="-386114176#1" to="221893275" type="bus"/>
    <trip id="bus161" depart="483.00" from="463947013#2" to="-168645107#3" type="bus"/>
    <trip id="bus162" depart="486.00" from="-8154722" to="27572165#1" type="bus"/>
    <trip id="bus163" depart="489.00" from="-28788382#5" to="324535454#2" type="bus"/>
    <trip id="bus164" depart="492.00" from="161389761#1" to="-386114791" type="bus"/>
    <trip id="bus165" depart="495.00" from="27570527#5" to="-122735156#0" type="bus"/>
    <trip id="bus166" depart="498.00" from="327764054#0" to="386114787" type="bus"/>
    <trip id="bus167" depart="501.00" from="-248521918" to="157642291" type="bus"/>
    <trip id="bus168" depart="504.00" from="157422557#1" to="426799412#3" type="bus"/>
    <trip id="bus169" depart="507.00" from="27571479#3" to="550873590" type="bus"/>
    <trip id="bus170" depart="510.00" from="248870340#0" to="518473678" type="bus"/>
    <trip id="bus171" depart="513.00" from="473691613" to="27571744" type="bus"/>
    <trip id="bus172" depart="516.00" from="27951335#2" to="245234795#4" type="bus"/>
    <trip id="bus173" depart="519.00" from="4328544" to="250338875" type="bus"/>
    <trip id="bus174" depart="522.00" from="475370302" to="386114169" type="bus"/>
    <trip id="bus175" depart="525.00" from="157483949#1" to="-425383184#0" type="bus"/>
    <trip id="bus176" depart="528.00" from="345328736" to="245560600#3" type="bus"/>
    <trip id="bus177" depart="531.00" from="27078594" to="-4727809#0" type="bus"/>
    <trip id="bus178" depart="534.00" from="-221893219#2" to="-473679816#1" type="bus"/>
    <trip id="bus179" depart="537.00" from="-386114159#2" to="320070573#1" type="bus"/>
    <trip id="bus180" depart="540.00" from="27951309#0" to="-157643736#5" type="bus"/>
    <trip id="bus181" depart="543.00" from="-550735550" to="249870999#1" type="bus"/>
    <trip id="bus182" depart="546.00" from="-88497949#0" to="-343764294" type="bus"/>
    <trip id="bus183" depart="549.00" from="10785858#3" to="4902396" type="bus"/>
    <trip id="bus184" depart="552.00" from="-4902451#2" to="-122735156#1" type="bus"/>
    <trip id="bus185" depart="555.00" from="466974169" to="519339286#2" type="bus"/>
    <trip id="bus186" depart="558.00" from="10785374" to="386114178" type="bus"/>
    <trip id="bus187" depart="561.00" from="229481767#1" to="27571479#3" type="bus"/>
    <trip id="bus188" depart="564.00" from="122735172" to="-157423551#0" type="bus"/>
    <trip id="bus189" depart="567.00" from="-548651990#1" to="-27572154#0" type="bus"/>
    <trip id="bus190" depart="570.00" from="157483940#3" to="-27467655#2" type="bus"/>
    <trip id="bus191" depart="573.00" from="27016563#0" to="-157422557#0" type="bus"/>
    <trip id="bus192" depart="576.00" from="-518474788" to="255915662#3" type="bus"/>
    <trip id="bus193" depart="579.00" from="-156251563" to="27951285#2" type="bus"/>
    <trip id="bus194" depart="582.00" from="-27570528#1" to="221888727" type="bus"/>
    <trip id="bus195" depart="585.00" from="-157642274#2" to="122735167" type="bus"/>
    <trip id="bus196" depart="588.00" from="343763223#1" to="122735167" type="bus"/>
    <trip id="bus197" depart="591.00" from="-386114189" to="-221893214#0" type="bus"/>
    <trip id="bus198" depart="594.00" from="96494363" to="-531846850" type="bus"/>
    <trip id="bus199" depart="597.00" from="27558788#0" to="386278944#1" type="bus"/>
    <trip id="bus200" depart="600.00" from="27558789#1" to="386114190" type="bus"/>
    <trip id="bus201" depart="603.00" from="496360757" to="-28885076#0" type="bus"/>
    <trip id="bus202" depart="606.00" from="-27490679#1" to="27952559#3" type="bus"/>
    <trip id="bus203" depart="609.00" from="245234799#4" to="-345332044" type="bus"/>
    <trip id="bus204" depart="612.00" from="27840841#3" to="386114779#2" type="bus"/>
    <trip id="bus205" depart="615.00" from="-27840838#0" to="27571486" type="bus"/>
    <trip id="bus206" depart="618.00" from="410069075#1" to="549815935" type="bus"/>
    <trip id="bus207" depart="621.00" from="-249697138" to="-143331551#6" type="bus"/>
    <trip id="bus208" depart="624.00" from="-4727807#4" to="28788377#1" type="bus"/>
    <trip id="bus209" depart="627.00" from="506329457#2" to="143426399#0" type="bus"/>
    <trip id="bus210" depart="630.00" from="27951329#0" to="-168645111#4" type="bus"/>
    <trip id="bus211" depart="633.00" from="-245234850#1" to="386114797" type="bus"/>
    <trip id="bus212" depart="636.00" from="-27218103#2" to="550757841" type="bus"/>
    <trip id="bus213" depart="639.00" from="386113079" to="-523057042" type="bus"/>
    <trip id="bus214" depart="642.00" from="162154108#0" to="-506271618#0" type="bus"/>
    <trip id="bus215" depart="645.00" from="-248521903#0" to="528715329" type="bus"/>
    <trip id="bus216" depart="648.00" from="27951309#3" to="161392064#5" type="bus"/>
    <trip id="bus217" depart="651.00" from="-386114787" to="443606339" type="bus"/>
    <trip id="bus218" depart="654.00" from="122735171" to="386114158" type="bus"/>
    <trip id="bus219" depart="657.00" from="-386114784" to="4734476#0" type="bus"/>
    <trip id="bus220" depart="660.00" from="4328546#0" to="-221893237" type="bus"/>
    <trip id="bus221" depart="663.00" from="473679813" to="-386114791" type="bus"/>
    <trip id="bus222" depart="666.00" from="157483505#1" to="27571495#0" type="bus"/>
    <trip id="bus223" depart="669.00" from="-4902450#4" to="-157423546#0" type="bus"/>
    <trip id="bus224" depart="672.00" from="466974156#0" to="-27951334#0" type="bus"/>
    <trip id="bus225" depart="675.00" from="-4770196#1" to="4774365#0" type="bus"/>
    <trip id="bus226" depart="678.00" from="27951279#2" to="-4727809#10" type="bus"/>
    <trip id="bus227" depart="681.00" from="-122735156#1" to="518473676" type="bus"/>
    <trip id="bus228" depart="684.00" from="-221893275" to="345332043#1" type="bus"/>
    <trip id="bus229" depart="687.00" from="157643732#1" to="386114192#4" type="bus"/>
    <trip id="bus230" depart="690.00" from="27572162#2" to="27951304#7" type="bus"/>
    <trip id="bus231" depart="693.00" from="157643735#0" to="409581860#1" type="bus"/>
    <trip id="bus232" depart="696.00" from="-229481708#2" to="-386113077#0" type="bus"/>
    <trip id="bus233" depart="699.00" from="27572165#2" to="-4774366" type="bus"/>
    <trip id="bus234" depart="702.00" from="221893225" to="157642291" type="bus"/>
    <trip id="bus235" depart="705.00" from="319453545#1" to="-4902426#1" type="bus"/>
    <trip id="bus236" depart="708.00" from="27951304#3" to="-466991750#0" type="bus"/>
    <trip id="bus237" depart="711.00" from="221893279" to="386114208" type="bus"/>
    <trip id="bus238" depart="714.00" from="-28788359#1" to="-345332043#0" type="bus"/>
    <trip id="bus239" depart="717.00" from="157643725#1" to="386113076#4" type="bus"/>
    <trip id="bus240" depart="720.00" from="549928648#3" to="247833371#1-AddedOnRampEdge" type="bus"/>
    <trip id="bus241" depart="723.00" from="-386579153" to="-245234796#0" type="bus"/>
    <trip id="bus242" depart="726.00" from="-28788382#4" to="-386114184#0" type="bus"/>
    <trip id="bus243" depart="729.00" from="221893257" to="-4727807#3" type="bus"/>
    <trip id="bus244" depart="732.00" from="549928642#1" to="252482715#6" type="bus"/>
    <trip id="bus245" depart="735.00" from="27840840#0" to="-27218104#3" type="bus"/>
    <trip id="bus246" depart="738.00" from="4727809#0" to="24184169#2" type="bus"/>
    <trip id="bus247" depart="741.00" from="4727811" to="27467656" type="bus"/>
    <trip id="bus248" depart="744.00" from="157483942#3" to="162154102#0" type="bus"/>
    <trip id="bus249" depart="747.00" from="-28788359#1" to="-157642260#0" type="bus"/>
    <trip id="bus250" depart="750.00" from="4902433#4" to="229479522" type="bus"/>
    <trip id="bus251" depart="753.00" from="422062691" to="157423546#1" type="bus"/>
    <trip id="bus252" depart="756.00" from="-221893210#1" to="27572165#0" type="bus"/>
    <trip id="bus253" depart="759.00" from="-157642291" to="-27571484#1" type="bus"/>
    <trip id="bus254" depart="762.00" from="245234799#0" to="-4770307#4" type="bus"/>
    <trip id="bus255" depart="765.00" from="8148885#1" to="-27016573#0" type="bus"/>
    <trip id="bus256" depart="768.00" from="183017632" to="168645103#2" type="bus"/>
    <trip id="bus257" depart="771.00" from="122735197" to="473691589" type="bus"/>
    <trip id="bus258" depart="774.00" from="550860118#2" to="-4774366" type="bus"/>
    <trip id="bus259" depart="777.00" from="27016563#0" to="27571492#1" type="bus"/>
    <trip id="bus260" depart="780.00" from="28885076#1" to="518473676" type="bus"/>
    <trip id="bus261" depart="783.00" from="-341224415#1" to="-345328742#2" type="bus"/>
    <trip id="bus262" depart="786.00" from="-27951311" to="-168645111#1" type="bus"/>
    <trip id="bus263" depart="789.00" from="-10786728#1" to="168645103#2" type="bus"/>
    <trip id="bus264" depart="792.00" from="248521923#1" to="-473691609" type="bus"/>
    <trip id="bus265" depart="795.00" from="-386114160#0" to="343763218" type="bus"/>
    <trip id="bus266" depart="798.00" from="27951304#4" to="168645109#0" type="bus"/>
    <trip id="bus267" depart="801.00" from="27572154#1" to="4902449" type="bus"/>
    <trip id="bus268" depart="804.00" from="386114188#0" to="27572158" type="bus"/>
    <trip id="bus269" depart="807.00" from="122735133" to="250338817#1" type="bus"/>
    <trip id="bus270" depart="810.00" from="27558781" to="4902415#2" type="bus"/>
    <trip id="bus271" depart="813.00" from="425383186" to="-168645105#0" type="bus"/>
    <trip id="bus272" depart="816.00" from="-27709338" to="-4774375#0" type="bus"/>
    <trip id="bus273" depart="819.00" from="320070573#6" to="27218102#1" type="bus"/>
    <trip id="bus274" depart="822.00" from="-409581860#0" to="-27218103#1" type="bus"/>
    <trip id="bus275" depart="825.00" from="27572155#1" to="327956372" type="bus"/>
    <trip id="bus276" depart="828.00" from="4902436#0" to="245234777" type="bus"/>
    <trip id="bus277" depart="831.00" from="161389758" to="-221888735" type="bus"/>
    <trip id="bus278" depart="834.00" from="-157483947#3" to="161389761#1" type="bus"/>
    <trip id="bus279" depart="837.00" from="-229479575#2" to="53172877#2" type="bus"/>
    <trip id="bus280" depart="840.00" from="443606341#2" to="27490670#0" type="bus"/>
    <trip id="bus281" depart="843.00" from="27571488#1" to="-466974177#1" type="bus"/>
    <trip id="bus282" depart="846.00" from="157483942#7" to="27951314" type="bus"/>
    <trip id="bus283" depart="849.00" from="4806339" to="-27951332#1" type="bus"/>
    <trip id="bus284" depart="852.00" from="248521865#0" to="27840836" type="bus"/>
    <trip id="bus285" depart="855.00" from="157643736#2" to="-229479573#3" type="bus"/>
    <trip id="bus286" depart="858.00" from="27571484#3" to="473679823" type="bus"/>
    <trip id="bus287" depart="861.00" from="-473691610" to="319453545#1" type="bus"/>
    <trip id="bus288" depart="864.00" from="402922224" to="252482711#3" type="bus"/>
    <trip id="bus289" depart="867.00" from="143426399#1" to="-487551846#1" type="bus"/>
    <trip id="bus290" depart="870.00" from="-473691589" to="549939606#6" type="bus"/>
    <trip id="bus291" depart="873.00" from="-548651990#1" to="245546856#1" type="bus"/>
    <trip id="bus292" depart="876.00" from="550753287#6" to="27951327#1" type="bus"/>
    <trip id="bus293" depart="879.00" from="229481726#0" to="157483950#2" type="bus"/>
    <trip id="bus294" depart="882.00" from="-28788366" to="10785858#1" type="bus"/>
    <trip id="bus295" depart="885.00" from="329013842" to="27572159" type="bus"/>
    <trip id="bus296" depart="888.00" from="24184169#2" to="4902451#2" type="bus"/>
    <trip id="bus297" depart="891.00" from="122735176#1" to="327764057#0" type="bus"/>
    <trip id="bus298" depart="894.00" from="250338867" to="-386114780" type="bus"/>
    <trip id="bus299" depart="897.00" from="244035493" to="-229481762#1" type="bus"/>
    <trip id="bus300" depart="900.00" from="551160579" to="4902426#3" type="bus"/>
    <trip id="bus301" depart="903.00" from="27951331" to="245234842" type="bus"/>
    <trip id="bus302" depart="906.00" from="-386114798" to="47221485#1" type="bus"/>
    <trip id="bus303" depart="909.00" from="549939609#6" to="-386114791" type="bus"/>
    <trip id="bus304" depart="912.00" from="244035440#0" to="122735182#2" type="bus"/>
    <trip id="bus305" depart="915.00" from="490134197#1" to="245234801#2" type="bus"/>
    <trip id="bus306" depart="918.00" from="4734487" to="473691606#1" type="bus"/>
    <trip id="bus307" depart="921.00" from="-386223027" to="401773368" type="bus"/>
    <trip id="bus308" depart="924.00" from="-8154722" to="501498997" type="bus"/>
    <trip id="bus309" depart="927.00" from="162154108#4" to="463947013#3" type="bus"/>
    <trip id="bus310" depart="930.00" from="-386579153" to="-4770191#1" type="bus"/>
    <trip id="bus311" depart="933.00" from="157643733#0" to="-27571483#2" type="bus"/>
    <trip id="bus312" depart="936.00" from="229479575#0" to="-518473679" type="bus"/>
    <trip id="bus313" depart="939.00" from="244035493" to="249870999#1" type="bus"/>
    <trip id="bus314" depart="942.00" from="157422557#0" to="-4902389#1" type="bus"/>
    <trip id="bus315" depart="945.00" from="245546852" to="-386114193" type="bus"/>
    <trip id="bus316" depart="948.00" from="401262992#0" to="122735192" type="bus"/>
    <trip id="bus317" depart="951.00" from="27571469#1" to="463947013#4" type="bus"/>
    <trip id="bus318" depart="954.00" from="549939609#8" to="244074953#1" type="bus"/>
    <trip id="bus319" depart="957.00" from="-157483942#2" to="245234785" type="bus"/>
    <trip id="bus320" depart="960.00" from="248521901" to="473691621" type="bus"/>
    <trip id="bus321" depart="963.00" from="4727898#1" to="162043157#1" type="bus"/>
    <trip id="bus322" depart="966.00" from="221888735" to="179109642#1" type="bus"/>
    <trip id="bus323" depart="969.00" from="27951347#3" to="157483942#8" type="bus"/>
    <trip id="bus324" depart="972.00" from="27570527#1" to="-27571495#6" type="bus"/>
    <trip id="bus325" depart="975.00" from="157483942#4" to="549939606#2" type="bus"/>
    <trip id="bus326" depart="978.00" from="-4770195#0" to="319453543#6" type="bus"/>
    <trip id="bus327" depart="981.00" from="27558788#0" to="4734476#0" type="bus"/>
    <trip id="bus328" depart="984.00" from="466974166#0" to="473691589" type="bus"/>
    <trip id="bus329" depart="987.00" from="-4902451#2" to="-490134197#0" type="bus"/>
    <trip id="bus330" depart="990.00" from="27951335#0" to="386114197#1" type="bus"/>
    <trip id="bus331" depart="993.00" from="4727810" to="-157483507#0" type="bus"/>
    <trip id="bus332" depart="996.00" from="-168645111#0" to="27572173#1" type="bus"/>
    <trip id="bus333" depart="999.00" from="490134197#0" to="96097794" type="bus"/>
    <trip id="bus334" depart="1002.00" from="320070573#0" to="161392062" type="bus"/>
    <trip id="bus335" depart="1005.00" from="-245234779" to="27803780#0" type="bus"/>
    <trip id="bus336" depart="1008.00" from="4727811" to="162154108#2" type="bus"/>
    <trip id="bus337" depart="1011.00" from="27572175" to="4902394#2" type="bus"/>
    <trip id="bus338" depart="1014.00" from="-157642260#0" to="409581861#1" type="bus"/>
    <trip id="bus339" depart="1017.00" from="245234842" to="409581860#0" type="bus"/>
    <trip id="bus340" depart="1020.00" from="-27840840#4" to="-221888674#0" type="bus"/>
    <trip id="bus341" depart="1023.00" from="4727809#5" to="27571853" type="bus"/>
    <trip id="bus342" depart="1026.00" from="-386114165" to="4902426#3" type="bus"/>
    <trip id="bus343" depart="1029.00" from="-27571488#2" to="221888727" type="bus"/>
    <trip id="bus344" depart="1032.00" from="-386114190" to="-409581861#0" type="bus"/>
    <trip id="bus345" depart="1035.00" from="-122735155" to="442026556#0" type="bus"/>
    <trip id="bus346" depart="1038.00" from="4770190#5" to="28788380" type="bus"/>
    <trip id="bus347" depart="1041.00" from="-27572158" to="162154103#1" type="bus"/>