<?xml version="1.0" encoding="UTF-8"?>

<!-- generated on Mon Jan 15 22:06:22 2018 by SUMO duarouter Version 0.30.0
<?xml version="1.0" encoding="UTF-8"?>

<configuration xmlns:xsi="http://www.w3.org/2001/XMLSchema-instance" xsi:noNamespaceSchemaLocation="http://sumo.dlr.de/xsd/duarouterConfiguration.xsd">

    <input>
        <net-file value="/media/jefferson/Dados/workspace/gtracker/vanet/sp/sp.net.xml"/>
        <trip-files value="/media/jefferson/Dados/workspace/gtracker/vanet/sp/sp.bus.trips.xml"/>
    </input>

    <output>
        <output-file value="/media/jefferson/Dados/workspace/gtracker/vanet/sp/sp.bus.rou.xml"/>
    </output>

    <processing>
        <ignore-errors value="true"/>
    </processing>

    <time>
        <begin value="0"/>
        <end value="3600.0"/>
    </time>

    <report>
        <no-warnings value="true"/>
        <no-step-log value="true"/>
    </report>

</configuration>
-->

<routes xmlns:xsi="http://www.w3.org/2001/XMLSchema-instance" xsi:noNamespaceSchemaLocation="http://sumo.dlr.de/xsd/routes_file.xsd">
    <vType id="bus" vClass="bus"/>
    <vehicle id="bus0" type="bus" depart="0.00">
        <route edges="27558694 442026898#0 360359321#1 442027004#0 442027004#1 442027004#2 442027004#3 312299088#0 312299088#1 312299088#2 47221485#0 27572162#0 27572162#1 27572162#2 27572162#3 -53172877#0 27572154#1 -27572158 409581862#0 409581862#1 409581862#2 409581862#3 522933335 -409581860#0 -409581861#1 -409581861#0 27570951#1 27570951#2 519339286#1 519339286#2 443606341#1 443606341#2 501498995 443606343 543344250#0 543344250#1 328584567#1 96097829#0 96097829#1 96097829#2 4523238 327754983 247833369#0 247833369#1 319447428#0 319447428#1 319447428#2 319447428#3 401773368 327956372 327956373#0 327956373#1 4902374#0 4902374#1 4902374#2 4902374#3 -4902433#10 -4902433#9 -4902433#8 -4902433#7 -4902433#6 -4902433#5 -4902433#4 -4902433#3 -4902433#2 -4902433#1 -4902433#0 143331532#1 -506329457#2 -473679813 -351479491 -473679810#3 -473679810#2 -473679810#1 -473679810#0 -157483950#6 -157483950#5 -157483950#4 -157483950#3 -157483950#2 -157483950#1 143331551#0 143331551#1 143331551#2 143331551#3 143331551#4 -143331551#4"/>
    </vehicle>
    <vehicle id="bus2" type="bus" depart="6.00">
        <route edges="-345332043#1 345332043#1 -157483952#2 -157483952#1 -157483952#0 -143331551#0 157483950#1 157483950#2 157483950#3 157483950#4 157483950#5 157483950#6 473679810#0 473679810#1 473679810#2 473679810#3 351479491 473679813 506329457#2 -143331532#1 4902433#0 4902433#1 4902433#2 4902433#3 4902433#4 4902433#5 4902433#6 4902433#7 4902433#8 4902433#9 4902433#10 4902416#0 4902416#2 161392064#3 161392064#4 161392064#5 319453543#0 319453543#1 319453543#2 161392073#0 161392072 319453543#4 319453543#5 319453543#6 319453544 161392067 161392069#1 96097794 15968349 480295115#0 480295115#1 245234770#0 245234770#1 245234770#2 245234770#3 245234770#4 245234770#5 245234770#6 245234770#7 245234770#8 245234770#9 245234770#10 245234770#11 245234770#12 27571486 27571484#3 27571484#4 27571484#5 27571484#6 -248521868#2 -96494363 245234796#2"/>
    </vehicle>
    <vehicle id="bus3" type="bus" depart="9.00">
        <route edges="-156251563 255915655 255915658#0 255915658#1 426586451#0 426586451#1 255915660 -8149966#2 -8149966#1 -8149966#0 4727926#0 245560600#0 245560600#1 245560600#2 245560600#3 245560600#4 245560600#5 245560600#6 549941138#0 27490672#0 27490672#1 27490672#2 549939609#1 549939609#2 549939609#3 549939609#5 549939609#6 27570526#0 27570526#1 27570526#3 327764057#0 327764057#1 327764057#2 327764055 473691608#1 473691608#2 473691604#0 473691604#1 473691601#0 28788382#3 27840841#2 27840841#3 27840841#4 27467658#0 -28885076#2 -28885076#1 -28885076#0"/>
    </vehicle>
    <vehicle id="bus4" type="bus" depart="12.00">
        <route edges="-351479491 351479491 473679813 506329457#2 -143331532#1 4902433#0 4902433#1 4902433#2 4902433#3 4902433#4 4902433#5 4902433#6 4902433#7 4902433#8 4902433#9 4902433#10 4902416#0 4902416#2 161392064#3 161392064#4 161392064#5 319453543#0 319453543#1 319453543#2 161392073#0 161392072 319453543#4 319453543#5 319453543#6 319453544 161392067 161392069#1 96097794 15968349 480295115#0 480295115#1 245234770#0 245234770#1 245234770#2 245234770#3 245234770#4 245234770#5 245234770#6 245234770#7 245234770#8 245234770#9 245234770#10 245234770#11 245234770#12 245234770#14 245234770#15 250338821#0 250338821#1 250338817#0 250338817#1 250338817#2 250338817#3 250338817#4 250338817#5 250338817#6 250338817#7 250338817#8 201637618#0 201637618#1 201637617 442026558 331379640 27558790#1 27558790#2 -229479593 -27558786 122735151#0 -122735186#1 -27558788#1 27558789#2"/>
    </vehicle>
    <vehicle id="bus5" type="bus" depart="15.00">
        <route edges="39368522#2 39368522#4 39368522#5 229481708#2 550867442#0 550867442#1 550712033 550712036#0 550712034 4806304#2 473684642#0 473684642#1 247833370#1 4328546#1 4734487 96097834 15968349 480295115#0 480295115#1 245234770#0 245234770#1 245234770#2 245234770#3 245234770#4 245234770#5 245234770#6 245234770#7 245234770#8 245234770#9 245234770#10 245234770#11 245234770#12 27571486 27571484#3 27571484#4 27571484#5 27571484#6 -248521868#2 -248521868#1 -248521868#0 -409581860#13 -409581860#12 -409581860#11 -409581860#10 -409581860#9 -409581860#7 -409581860#6 -409581860#5 -409581860#4 -409581860#3 -409581860#2 -409581860#1 -409581860#0 -409581861#1 -409581861#0 -248521865#1 122735160#0 -122735160#0"/>
    </vehicle>
    <vehicle id="bus6" type="bus" depart="18.00">
        <route edges="-4770196#0 -4770191#8 -4770191#7 -4770191#6 -4770191#5 -4770191#3 4770307#0 4770307#1 4770307#2 -4902389#0 245553663#8 4902415#0 4902415#1 4902369#0 4902441#0 4902441#1 549928642#3 327764059#0 327764059#1 161392064#0 161392064#1 161392064#3 161392064#4 161392064#5 319453543#0 319453543#1 319453543#2 161392073#0 161392072 319453543#4 319453543#5 319453543#6 319453544 161392067 161392069#1 96097794 15968349 480295115#0 480295115#1 245234770#0 245234770#1 245234770#2 245234770#3 245234770#4 245234770#5 245234770#6 245234770#7 245234770#8 245234770#9 245234770#10 245234770#11 245234770#12 27571486 27571484#3 27571484#4 27571484#5 27571484#6 -248521868#2 -248521868#1 -27571744"/>
    </vehicle>
    <vehicle id="bus7" type="bus" depart="21.00">
        <route edges="-229481708#0 402922224 380438949#0 -39368524#2 473691590#0 518474575 39368522#4 39368522#5 229481708#2 550867442#0 550867442#1 550712033 550712036#0 550712034 4806304#2 473684642#0 473684642#1 247833370#1 4328546#1 4734487 96097834 15968349 480295115#0 480295115#1 245234770#0 245234770#1 245234770#2 245234770#3 245234770#4 245234770#5 245234770#6 245234770#7 245234770#8 245234770#9 245234770#10 245234770#11 245234770#12 245234770#14 245234770#15 250338821#0 250338821#1 250338817#0 250338817#1 250338817#2 250338817#3 250338817#4 250338817#5 250338817#6 250338817#7 250338817#8 201637618#0 201637618#1 201637617 442026558 331379640 27558790#1 27558790#2 -229479593 -27558786 122735151#0 -122735186#1 -122735186#0 -244074953#2 -244074953#1"/>
    </vehicle>
    <vehicle id="bus8" type="bus" depart="24.00">
        <route edges="4629513#0 4629513#1 255915658#0 255915658#1 426586451#0 426586451#1 255915660 -8149966#2 -8149966#1 -8149966#0 4727926#0 245560600#0 245560600#1 245560600#2 245560600#3 245560600#4 245560600#5 245560600#6 549941138#0 27490672#0 27490672#1 27490672#2 549939609#1 549939609#2 549939609#3 549939609#5 549939609#6 549939609#7 549939609#8 327764059#0 327764059#1 161392064#0 161392064#1 161392064#3 161392064#4 161392064#5 319453543#0 319453543#1 319453543#2 161392073#0 161392072 319453543#4 319453543#5 319453543#6 319453544 161392067 161392069#1 96097794 15968349 480295115#0 480295115#1 245234770#0 245234770#1 245234770#2 245234770#3 245234770#4 245234770#5 245234770#6 245234770#7 245234770#8 245234770#9 245234770#10 245234770#11 245234770#12 27571486 27571484#3 27571484#4 27571484#5 27571484#6 -248521868#2 -248521868#1 -248521868#0 -409581860#13 -409581860#12 -409581860#11 27571482"/>
    </vehicle>
    <vehicle id="bus9" type="bus" depart="27.00">
        <route edges="386278945 -27490676 -27490674 549939609#2 549939609#3 549939609#5 549939609#6 549939609#7 549939609#8 549928651 4523223#0 4523223#1 4523223#2 4523223#3 4902423 -4902450#3 -4902450#2 -4902389#1 -4770307#2 -4770307#1 -4770307#0 -4770191#1 550753287#5 550753287#6 4727807#3 4727807#4 4727810 -4727809#12 386113076#0 386113076#1 386113076#2 386113080"/>
    </vehicle>
    <vehicle id="bus10" type="bus" depart="30.00">
        <route edges="221893285#0 -221893285#0 340955667 221893215#0 221893215#1 221893215#2 511815818 -27467658#2 -27467658#0 -27840841#4 -27840841#3 -27840841#2 -28788382#3 -473691601#0 -473691604#1 -473691604#0 473691608#3 -327764055 -327764057#2 -327764057#1 -327764057#0 28788360#1 28788360#2 549928651 4523223#0 4523223#1 4523223#2 4523223#3 4523223#4 4523223#5 4523223#6 4523223#7 549939606#0 549939606#2 549941138#0"/>
    </vehicle>
    <vehicle id="bus11" type="bus" depart="33.00">
        <route edges="-4902450#4 -4902450#3 -4902450#2 -4902389#1 -4902389#0 245553663#8 4902415#0 4902415#1 4902369#0 4902441#0 4902441#1 549928642#3 327764059#0 327764059#1 161392064#0 161392064#1 161392064#3 161392064#4 161392064#5 319453543#0 319453543#1 319453543#2 161392073#0 161392072 319453543#4 319453543#5 319453543#6 319453544 161392067 161392069#1 96097794 15968349 480295115#0 480295115#1 245234770#0 245234770#1 245234770#2 245234770#3 245234770#4 245234770#5 245234770#6 245234770#7 245234770#8 245234770#9 245234770#10 245234770#11 245234770#12 245234770#14 245234770#15 250338821#0 250338821#1 250338817#0 250338817#1 250338817#2 250338817#3 250338817#4 250338817#5 250338817#6 250338817#7 250338817#8 201637618#0 201637618#1 201637617 252482715#0 252482715#1 252482715#2 252482715#3"/>
    </vehicle>
    <vehicle id="bus12" type="bus" depart="36.00">
        <route edges="426799412#3 426799412#4 245560600#0 245560600#1 245560600#2 245560600#3 245560600#4 245560600#5 245560600#6 549941138#0 27490672#0 27490672#1 27490672#2 549939609#1 549939609#2 549939609#3 549939609#5 549939609#6 549939609#7 549939609#8 327764059#0 327764059#1 161392064#0 161392064#1 161392064#3 161392064#4 161392064#5 319453543#0 319453543#1 319453543#2 161392073#0 161392072 319453543#4 319453543#5 319453543#6 319453544 161392067 161392069#1 96097794 15968349 480295115#0 480295115#1 245234770#0 245234770#1 245234770#2 245234770#3 245234770#4 245234770#5 245234770#6 245234770#7 245234770#8 245234770#9 245234770#10 245234770#11 245234770#12 27571486 27571484#3 27571484#4 27571484#5 27571484#6 -248521868#2 -248521868#1 -248521868#0 -409581860#13 -409581860#12 -409581860#11 -409581860#10 -409581860#9 -409581860#7 -409581860#6 -409581860#5 -27571852 27571850#3"/>
    </vehicle>
    <vehicle id="bus13" type="bus" depart="39.00">
        <route edges="47221489 47221485#0 27572162#0 27572162#1 27572162#2 27572162#3 -53172877#0 27572154#1 -27572158 409581862#0 409581862#1 409581862#2 409581862#3 522933335 -409581860#0 -409581861#1 -409581861#0 27570951#1 27570951#2 519339286#1 519339286#2 443606341#1 443606341#2 501498995 443606343 543344250#0 543344250#1 328584567#1 96097829#0 96097829#1 96097829#2 4523238 327754983 247833369#0 247833369#1 319447428#0 319447428#1 319447428#2 319447428#3 401773368 327956372 327956373#0 327956373#1 327956374 549928635 549928642#0 549928642#1 549928642#2 549928642#3 549928651 4523223#0 4523223#1 4523223#2 4523223#3 4523223#4 4523223#5 4523223#6 4523223#7 549939609#1 27490674 27490676"/>
    </vehicle>
    <vehicle id="bus14" type="bus" depart="42.00">
        <route edges="27951305#3 345049502#1 245234779 245234780 27952553 245546856#0 245546856#1 245546856#2 245546840 245546843#0 245546843#1 245546843#2 245546843#3 250338884 250338892 324535454#0 324535454#1 324535454#2 248521874#0 248521874#1 248521874#2 248521874#3 248521874#4 248521870#0 248521870#1 248521870#3 248521870#4 249697086 245546848#0 245546848#1 4559381 15968284 161392066 319447428#0 319447428#1 319447428#2 319447428#3 401773368 327956372 327956373#0 327956373#1 4902374#0 4902374#1 4902374#2 4902374#3 -4902433#10 -4902433#9 -4902433#8 -4902433#7 -4902433#6 -4902433#5 -4902433#4 -4902433#3 -4902433#2 -4902433#1 -4902433#0 143331532#1 -506329457#2 -473679813 -351479491 -473679810#3 -473679810#2 -473679810#1 -473679810#0 -157483950#6 -157483950#5 -157483950#4 -157483950#3 -157483950#2 -157483950#1 -157483950#0"/>
    </vehicle>
    <vehicle id="bus15" type="bus" depart="45.00">
        <route edges="-386113080 -386113076#2 -386113076#1 -386113076#0 -4727809#11 -4727809#10 -4727809#9 27218101 466974177#0 466974177#1 -27218103#1 -27218103#0 157483942#6 157483942#7 157483942#8 -157483940#1 -157483940#0 351479491 473679813 506329457#2 -143331532#1 4902433#0 4902433#1 4902433#2 4902433#3 4902433#4 4902433#5 4902433#6 4902433#7 4902433#8 4902433#9 4902433#10 -549928646#1 -549928646#0 549928642#0 549928642#1 549928642#2 549928642#3 549928651 245234861 27570526#0 27570526#1 27570526#3 327764057#0 327764057#1 327764057#2 327764055 473691608#1 473691608#2 473691604#0 473691604#1 473691601#0 -473691601#0"/>
    </vehicle>
    <vehicle id="bus16" type="bus" depart="48.00">
        <route edges="-221893235 221893217#4 221893217#5 28885073 221893215#0 221893215#1 221893215#2 511815818 -27467658#2 -27467658#0 -27840841#4 -27840841#3 -27840841#2 -28788382#3 -473691601#0 -473691604#1 -473691604#0 473691608#3 -327764055 -327764057#2 -327764057#1 -4902394#4 -4902394#3 -4902394#2 -4902394#1 -4902394#0 28788362 549928646#0 161392062 4902374#3 -4902433#10 -4902433#9 -4902433#8 -4902433#7 -4902433#6 -4902433#5 -4902433#4 -4902433#3 -4902433#2 -4902433#1 -4902433#0 143331532#1 -506329457#2 -473679813 -351479491 157483940#0 157483940#1 -157483942#8 -157483942#7 -157483942#6 27218103#0 27218103#1 -466974177#1 -466974177#0 -27218101 -4727809#8 -4727809#7 -386114196 386114192#2 386114192#3 -386114193"/>
    </vehicle>
    <vehicle id="bus17" type="bus" depart="51.00">
        <route edges="-245234796#0 245234796#0 245234796#1 96494363 248521868#2 248521868#3 250338892 324535454#0 324535454#1 324535454#2 248521874#0 248521874#1 248521874#2 248521874#3 248521874#4 248521870#0 248521870#1 248521870#3 248521870#4 249697086 245546848#0 245546848#1 4559381 15968284 161392066 319447428#0 319447428#1 319447428#2 319447428#3 401773368 327956372 327956373#0 327956373#1 4902374#0 4902374#1 4902374#2 4902374#3 -4902433#10 -4902433#9 -4902433#8 -4902433#7 -4902433#6 -4902433#5 -4902433#4 -4902433#3 -4902433#2 -4902433#1 -4902433#0 143331532#1 -506329457#2 -473679813 -351479491 157483940#0 157483940#1 -157483942#8 -157483942#7 -157483942#6 27218103#0 27218103#1 -466974177#1 -466974177#0 -27218101 -4727809#8 -4727809#7 -4727809#6 -4727809#5"/>
    </vehicle>
    <vehicle id="bus18" type="bus" depart="54.00">
        <route edges="27490670#1 27490670#2 27490671 549941138#0 27490672#0 27490672#1 27490672#2 549939609#1 549939609#2 549939609#3 549939609#5 549939609#6 549939609#7 549939609#8 327764059#0 327764059#1 161392064#0 161392064#1 161392064#3 161392064#4 161392064#5 319453543#0 319453543#1 319453543#2 161392073#0 161392072 319453543#4 319453543#5 319453543#6 319453544 161392067 161392069#1 96097794 15968349 480295115#0 480295115#1 245234770#0 245234770#1 245234770#2 245234770#3 245234770#4 245234770#5 245234770#6 245234770#7 245234770#8 245234770#9 245234770#10 245234770#11 245234770#12 245234770#14 245234770#15 250338821#0 250338821#1 250338817#0 250338817#1 250338817#2 250338817#3 250338817#4 250338817#5 250338817#6 250338817#7 250338817#8 201637618#0 201637618#1 201637617 252482711#0 10787528"/>
    </vehicle>
    <vehicle id="bus19" type="bus" depart="57.00">
        <route edges="-386114781 4727809#2 4727809#3 4727809#4 4727809#5 4727809#6 4727809#7 4727809#8 27218101 466974177#0 466974177#1 -27218103#1 -27218103#0 157483942#6 157483942#7 157483942#8 -157483940#1 -157483940#0 351479491 473679813 506329457#2 -143331532#1 4902433#0 4902433#1 4902433#2 4902433#3 4902433#4 4902433#5 4902433#6 4902433#7 4902433#8 4902433#9 4902433#10 4902416#0 4902416#2 161392064#3 161392064#4 161392064#5 319453543#0 319453543#1 319453543#2 161392073#0 161392072 319453543#4 319453543#5 319453543#6 319453544 161392067 161392069#1 96097794 15968349 480295115#0 480295115#1 245234770#0 245234770#1 245234770#2 245234770#3 245234770#4 245234770#5 245234770#6 245234770#7 245234770#8 245234770#9 245234770#10 245234770#11 245234770#12 248521874#0 248521874#1 248521874#2 248521874#3 501500327 501500324 501499002#0 501499002#1 501499002#2 501499002#3 501499002#4 501498997 27570951#2 27570951#3 27570956#1 401262992#0 27570957#0 27570954 501500253"/>
    </vehicle>
    <vehicle id="bus20" type="bus" depart="60.00">
        <route edges="-27840841#0 340955662 -27570527#5 -27570527#4 -27570527#3 -27570527#2 28788360#2 549928651 4523223#0 4523223#1 4523223#2 4523223#3 4902423 -4902450#3 -4902450#2 -4902389#1 -4770307#2 -4770307#1 -4770307#0 -4770191#1 550753287#5 550753287#6 4727807#3 4727807#4 4727810 -4727809#12 386113076#0 386113076#1 386113076#2 386113080"/>
    </vehicle>
    <vehicle id="bus21" type="bus" depart="63.00">
        <route edges="-27572173#0 27572162#1 27572162#2 27572162#3 -53172877#0 27572154#1 -27572158 -27571858 409581860#6 409581860#7 409581860#9 409581860#10 409581860#11 409581860#12 409581860#13 248521868#0 248521868#1 248521868#2 -27571484#6 -27571484#5 27571485#0 122735168#1"/>
    </vehicle>
    <vehicle id="bus22" type="bus" depart="66.00">
        <route edges="550860118#0 550860118#1 550860118#2 550860118#3 249697090#0 249697090#1 249697090#2 249697090#3 249697114#0 4734475#2 4734475#3 4734475#4 4734475#5 4734475#6 4734475#7 323823408 4734488 96097834 15968349 480295115#0 480295115#1 245234770#0 245234770#1 245234770#2 245234770#3 245234770#4 245234770#5 245234770#6 245234770#7 245234770#8 245234770#9 245234770#10 245234770#11 245234770#12 245234770#14 245234770#15 250338821#0 250338821#1 250338817#0 250338817#1 250338817#2 250338817#3 250338817#4 250338817#5 250338817#6 250338817#7 250338817#8 201637618#0 201637618#1 332399555 332399556 331379642 330560182 427821230#0 27951260"/>
    </vehicle>
    <vehicle id="bus23" type="bus" depart="69.00">
        <route edges="245234770#3 245234770#4 245234770#5 245234770#6 245234770#7 248521870#3 248521870#4 249697086 245546848#0 245546848#1 4559381 15968284 161392066 319447428#0 319447428#1 319447428#2 319447428#3 401773368 327956372 327956373#0 327956373#1 327956374 27570528#0 -28788365#2 28885040#1"/>
    </vehicle>
    <vehicle id="bus24" type="bus" depart="72.00">
        <route edges="4559084 418990606 4902378#0 4902474 327956373#1 327956374 549928635 549928642#0 549928642#1 549928642#2 549928642#3 549928651 4523223#0 4523223#1 4523223#2 4523223#3 4902423 -4902450#3 -4902450#2 -4902389#1 -4770307#2 386223023#0 -386223025#1 386223027"/>
    </vehicle>
    <vehicle id="bus25" type="bus" depart="75.00">
        <route edges="-345049503 -27952550 -27951306#0 27951334#0 27952558 248521903#0 27951329#0 27951329#1 27951329#2 27951329#3 248521874#0 248521874#1 248521874#2 248521874#3 248521874#4 248521870#0 248521870#1 248521870#3 248521870#4 249697086 245546848#0 245546848#1 4559381 161392065 247833370#0 247833370#1 4328546#1 4328546#2 86936182#0 511817674"/>
    </vehicle>
    <vehicle id="bus26" type="bus" depart="78.00">
        <route edges="27570527#3 -27570527#3 -4902394#2 -4902394#1 -4902394#0 28788362 549928646#0 161392062 4902374#3 -4902433#10 -4902433#9 -4902433#8 -4902433#7 -4902433#6 -4902433#5 -4902433#4 -4902433#3 -4902433#2 -4902433#1 -4902433#0 143331532#1 -506329457#2 -473679813 -351479491 157483940#0 157483940#1 157483940#2 157483940#3 386114778#1 466974166#1 386114783 -157483947#2 -157483947#1 386114784 143331551#7"/>
    </vehicle>
    <vehicle id="bus27" type="bus" depart="81.00">
        <route edges="4806304#0 4806304#1 4806304#2 473684642#0 473684642#1 247833370#1 4328546#1 4734487 96097834 15968349 480295115#0 480295115#1 245234770#0 245234770#1 245234770#2 245234770#3 245234770#4 245234770#5 245234770#6 245234770#7 245234770#8 245234770#9 245234770#10 245234770#11 245234770#12 245234770#14 245234770#15 250338821#0 250338821#1 250338817#0 250338817#1 250338817#2 250338817#3 250338817#4 250338817#5 250338817#6 250338817#7 250338817#8 201637618#0 201637618#1 201637617 442026558 331379640 442026556#0 442026556#1 183017632"/>
    </vehicle>
    <vehicle id="bus28" type="bus" depart="84.00">
        <route edges="-386114779#1 -386114779#0 4727809#3 4727809#4 4727809#5 4727809#6 4727809#7 4727809#8 27218101 466974177#0 466974177#1 -27218103#1 -27218103#0 157483942#6 157483942#7 157483942#8 -157483940#1 -157483940#0 351479491 473679813 506329457#2 -143331532#1 4902433#0 4902433#1 4902433#2 4902433#3 4902433#4 4902433#5 4902433#6 4902433#7 4902433#8 4902433#9 4902433#10 -549928646#1 -549928646#0 549928642#0 549928642#1 549928642#2 549928642#3 549928651 245234861 27570526#0 27570526#1 27570526#3 327764057#0 4902394#5 386278913#0 386278913#1 -386278913#1"/>
    </vehicle>
    <vehicle id="bus30" type="bus" depart="90.00">
        <route edges="-523058452 27571479#1 27571479#2 27571479#3 245546852 27217414#0 27217414#1 122735159#0 122735159#1 122735159#2 245546848#0 245546848#1 4559381 15968284 161392066 319447428#0 319447428#1 319447428#2 319447428#3 401773368 327956372 327956373#0 327956373#1 4902374#0 4902374#1 4902374#2 4902374#3 -4902433#10 -4902433#9 -4902433#8 -4902433#7 -4902433#6 -4902433#5 -4902433#4 -4902433#3 -4902433#2 -4902433#1 -4902433#0 143331532#1 -506329457#2 -473679813 -351479491"/>
    </vehicle>
    <vehicle id="bus31" type="bus" depart="93.00">
        <route edges="96097829#0 96097829#1 96097829#2 4523238 327754983 247833369#0 247833369#1 319447428#0 319447428#1 319447428#2 319447428#3 401773368 327956372 327956373#0 327956373#1 327956374 549928635 549928642#0 549928642#1 549928642#2 549928642#3 549928651 4523223#0 4523223#1 4523223#2 4523223#3 4523223#4 4523223#5 4523223#6 245234801#0 245234801#1 245234850#2"/>
    </vehicle>
    <vehicle id="bus32" type="bus" depart="96.00">
        <route edges="-229479575#1 -229479575#0 229479576 24187388 330560181 27951276 245546856#0 245546856#1 245546856#2 245546840 245546843#0 245546843#1 245546843#2 245546843#3 250338884 250338892 324535454#0 324535454#1 324535454#2 248521874#0 248521874#1 248521874#2 248521874#3 248521874#4 248521870#0 248521870#1 248521870#3 248521870#4 249697086 245546848#0 245546848#1 4559381 15968284 161392066 319447428#0 319447428#1 319447428#2 319447428#3 401773368 327956372 327956373#0 327956373#1 4902374#0 4902374#1 4902374#2 4902374#3 -4902433#10 -4902433#9 -4902433#8 -4902433#7 -4902433#6 -4902433#5 -4902433#4 -4902433#3 -4902433#2 -4902433#1 -4902433#0 143331532#1 -506329457#2 -473679813 -351479491 -473679810#3 -473679810#2 -473679810#1 -473679810#0 -157483950#6 -157483950#5 -157483950#4 -157483950#3 -157483950#2"/>
    </vehicle>
    <vehicle id="bus33" type="bus" depart="99.00">
        <route edges="-249697140 249697087#2 4734475#0 4734475#1 4734475#2 4734475#3 4734475#4 4734475#5 4734475#6 4734475#7 323823408 4734488 96097834 15968349 480295115#0 480295115#1 245234770#0 245234770#1 245234770#2 245234770#3 245234770#4 245234770#5 245234770#6 245234770#7 245234770#8 245234770#9 245234770#10 245234770#11 245234770#12 27571486 27571484#3 27571484#4 27571484#5 27571484#6 -248521868#2 -248521868#1 -248521868#0 -409581860#13 -409581860#12 -409581860#11 -409581860#10 27571857 -245234795#0 27572161"/>
    </vehicle>
    <vehicle id="bus34" type="bus" depart="102.00">
        <route edges="386114193 -386114192#3 -386114192#2 386114196 4727809#7 4727809#8 27218101 466974177#0 466974177#1 -27218103#1 -27218103#0 157483942#6 157483942#7 157483942#8 -157483940#1 -157483940#0 -473679810#3 -473679810#2 -473679810#1 -473679814#5 -473679814#4 -473679814#3 -473679814#2 157642287#0 157642287#1"/>
    </vehicle>
    <vehicle id="bus35" type="bus" depart="105.00">
        <route edges="-168645103#1 168645103#1 168645103#2 168645103#3 168645104#1 27218105 473679813 506329457#2 -143331532#1 4902433#0 4902433#1 4902433#2 4902433#3 4902433#4 4902433#5 4902433#6 4902433#7 4902433#8 4902433#9 4902433#10 4902416#0 4902416#2 161392064#3 161392064#4 161392064#5 319453543#0 319453543#1 319453543#2 161392073#0 161392072 319453543#4 319453543#5 319453543#6 319453544 161392067 161392069#1 96097794 15968349 480295115#0 480295115#1 245234770#0 245234770#1 245234770#2 245234770#3 245234770#4 245234770#5 245234770#6 245234770#7 245234770#8 245234770#9 245234770#10 245234770#11 245234770#12 245234770#14 245234770#15 250338821#0 250338821#1 27951304#0 27951304#1 122735157 122735176#2"/>
    </vehicle>
    <vehicle id="bus36" type="bus" depart="108.00">
        <route edges="8430747 27951245 -229479573#3 24184169#2 27951285#0 27951279#2 331379642 27951276 245546856#0 245546856#1 245546856#2 245546840 245546843#0 245546843#1 245546843#2 245546843#3 250338884 250338892 324535454#0 324535454#1 324535454#2 248521874#0"/>
    </vehicle>
    <vehicle id="bus37" type="bus" depart="111.00">
        <route edges="27571849#5 248521874#3 248521874#4 248521870#0 248521870#1 248521870#3 248521870#4 249697086 245546848#0 245546848#1 4559381 161392065 4734490 319453545#0 319453545#1 249697090#0 249697090#1 249697090#2 249697090#3"/>
    </vehicle>
    <vehicle id="bus38" type="bus" depart="114.00">
        <route edges="-386114781 4727809#2 4727809#3 4727809#4 4727809#5 4727809#6 4727809#7 4727809#8 27218101 466974177#0 466974177#1 -27218103#1 -27218103#0 157483942#6 157483942#7 157483942#8 -157483940#1 -157483940#0 351479491 473679813 506329457#2 -143331532#1 4902433#0 4902433#1 4902433#2 4902433#3 4902433#4 4902433#5 4902433#6 4902433#7 4902433#8 4902433#9 4902433#10 4902416#0 4902416#2 161392064#3 161392064#4 161392064#5 319453543#0 319453543#1 319453543#2 161392073#0 161392072 319453543#4 319453543#5 319453543#6 319453544 161392067 161392069#1 96097794 15968349 480295115#0 480295115#1 245234770#0 245234770#1 245234770#2 245234770#3 245234770#4 245234770#5 245234770#6 245234770#7 245234770#8 245234770#9 245234770#10 245234770#11 245234770#12 245234770#14 245234770#15 250338821#0 250338821#1 250338817#0 250338817#1 250338817#2 250338817#3 250338817#4 250338817#5 250338817#6 250338817#7 250338817#8 201637618#0 201637618#1 332399555 332399556 331379642 330560182 427821230#0 27951260"/>
    </vehicle>
    <vehicle id="bus39" type="bus" depart="117.00">
        <route edges="143331551#4 -143331551#4 -143331551#3 -143331551#2 -143331551#1 -143331551#0 157483950#1 157483950#2 157483950#3 157483950#4 157483950#5 157483950#6 473679810#0 473679810#1 473679810#2 473679810#3 351479491 473679813 506329457#2 -143331532#1 4902433#0 4902433#1 4902433#2 4902433#3 4902433#4 4902433#5 4902433#6 4902433#7 4902433#8 4902433#9 4902433#10 4902416#0 4902416#2 161392064#3 161392064#4 161392064#5 319453543#0 319453543#1 319453543#2 161392073#0 161392072 319453543#4 319453543#5 319453543#6 319453544 161392067 161392069#1 96097794 15968349 480295115#0 480295115#1 245234770#0 245234770#1 245234770#2 245234770#3 245234770#4 245234770#5 245234770#6 245234770#7 245234770#8 245234770#9 245234770#10 245234770#11 245234770#12 27571486 27571484#3 27571484#4 27571484#5 27571484#6 -248521868#2 -248521868#1 -248521868#0 -409581860#13 -409581860#12 -409581860#11 -409581860#10 -409581860#9 -409581860#7 -409581860#6 -409581860#5 -409581860#4 -409581860#3 -409581860#2 122735146 522933336"/>
    </vehicle>
    <vehicle id="bus40" type="bus" depart="120.00">
        <route edges="4734472 550865716 161389764 550860118#1 550860118#2 550860118#3 249697090#0 249697090#1 249697090#2 249697090#3 249697114#0 4734475#2 4734475#3 4734475#4 4734475#5 4734475#6 4734475#7 323823408 4734488 96097834 15968349 480295115#0 480295115#1 245234770#0 245234770#1 245234770#2 245234770#3 245234770#4 245234770#5 245234770#6 245234770#7 245234770#8 245234770#9 245234770#10 245234770#11 245234770#12 245234770#14 245234770#15 250338821#0 250338821#1 250338817#0 250338817#1 250338817#2 27951347#0 27951347#1 27951347#2 27951347#3 27951344#0 27951344#1 -458268603"/>
    </vehicle>
    <vehicle id="bus41" type="bus" depart="123.00">
        <route edges="161392075#1 319453543#2 161392073#0 161392072 319453543#4 319453543#5 319453543#6 319453544 161392067 161392069#1 96097794 15968349 480295115#0 480295115#1 245234770#0 245234770#1 245234770#2 245234770#3 245234770#4 245234770#5 27951322#0 27951322#1 -27951322#1"/>
    </vehicle>
    <vehicle id="bus42" type="bus" depart="126.00">
        <route edges="4774376 4774375#1 -4774365#3 -4774365#2 -4774365#1 -4774365#0 550873590 550732345 550745968 550741745 550757841 550725735#0 550756710#0 550756710#1 550747490 4902378#0 4902378#1 549917967 319453543#0 319453543#1 319453543#2 161392073#0 161392072 319453543#4 319453543#5 319453543#6 319453544 161392067 161392069#1 96097794 15968349 480295115#0 480295115#1 245234770#0 245234770#1 245234770#2 245234770#3 245234770#4 245234770#5 245234770#6 245234770#7 245234770#8 245234770#9 245234770#10 245234770#11 245234770#12 27571486 27571484#3 27571484#4 27571484#5 27571484#6 -248521868#2 -248521868#1 -248521868#0 -96494351#1 -96494351#0 475370191#0"/>
    </vehicle>
    <vehicle id="bus43" type="bus" depart="129.00">
        <route edges="-443606344 346317016 501500399 248521922#0 248521922#1 88497950 27571741 248521870#0 248521870#1 248521870#3 248521870#4 249697086 245546848#0 245546848#1 4559381 161392065 4734490 319453545#0 161389756#0 161389756#1 550860119#0 550860119#2 -550865716 -4734472 221893217#0 221893217#1 221893217#2 221893217#4 221893217#5 28885073 221893215#0 221893215#1 221893215#2 511815818 -27467658#2 -27467658#0 -27840841#4 -27840841#3 27840841#3"/>
    </vehicle>
    <vehicle id="bus44" type="bus" depart="132.00">