<?xml version="1.0" encoding="UTF-8"?>

<!-- generated on Thu Jan  4 15:02:28 2018 by SUMO netconvert Version 0.30.0
<?xml version="1.0" encoding="UTF-8"?>

<configuration xmlns:xsi="http://www.w3.org/2001/XMLSchema-instance" xsi:noNamespaceSchemaLocation="http://sumo.dlr.de/xsd/netconvertConfiguration.xsd">

    <input>
        <type-files value="/media/jefferson/Dados/workspace/sumo-0.30.0/data/typemap/osmNetconvert.typ.xml,/media/jefferson/Dados/workspace/sumo-0.30.0/data/typemap/osmNetconvertUrbanBrSP.typ.xml,/media/jefferson/Dados/workspace/sumo-0.30.0/data/typemap/osmNetconvertPedestrians.typ.xml"/>
        <osm-files value="/media/jefferson/Dados/workspace/GoodsTracker/vanet/sp/sp_bbox.osm.xml"/>
    </input>

    <output>
        <output-file value="/media/jefferson/Dados/workspace/GoodsTracker/vanet/sp/sp.net.xml"/>
        <plain-output-prefix value="/media/jefferson/Dados/workspace/GoodsTracker/vanet/sp/sp"/>
        <output.street-names value="true"/>
        <output.original-names value="true"/>
    </output>

    <projection>
        <proj.utm value="true"/>
    </projection>

    <tls_building>
        <tls.discard-loaded value="false"/>
        <tls.discard-simple value="false"/>
        <tls.join value="true"/>
        <tls.join-dist value="40"/>
        <tls.guess-signals value="false"/>
    </tls_building>

    <ramp_guessing>
        <ramps.guess value="true"/>
    </ramp_guessing>

    <processing>
        <geometry.remove value="true"/>
        <roundabouts.guess value="false"/>
        <junctions.join value="true"/>
        <junctions.join-dist value="5"/>
        <junctions.corner-detail value="5"/>
        <sidewalks.guess value="false"/>
        <crossings.guess value="true"/>
    </processing>

    <building_defaults>
        <default.junctions.radius value="1"/>
    </building_defaults>

    <report>
        <verbose value="true"/>
    </report>

</configuration>
-->

<connections version="0.27" xmlns:xsi="http://www.w3.org/2001/XMLSchema-instance" xsi:noNamespaceSchemaLocation="http://sumo.dlr.de/xsd/connections_file.xsd">
    <connection from="-143331549#0" to="4877450" fromLane="1" toLane="1"/>
    <connection from="-143331549#0" to="143331549#0" fromLane="1" toLane="1"/>

    <connection from="-143331549#1" to="-143331549#0" fromLane="1" toLane="1"/>
    <connection from="-143331549#1" to="4877455" fromLane="1" toLane="2"/>
    <connection from="-143331549#1" to="143331549#1" fromLane="1" toLane="1"/>

    <connection from="-143331549#2" to="-143331549#1" fromLane="1" toLane="1"/>
    <connection from="-143331549#2" to="386114209" fromLane="1" toLane="1"/>
    <connection from="-143331549#2" to="143331549#2" fromLane="1" toLane="1"/>

    <connection from="-162043156" to="-39368522#4" fromLane="1" toLane="1"/>
    <connection from="-162043156" to="39368522#5" fromLane="1" toLane="1"/>
    <connection from="-162043156" to="162043156" fromLane="1" toLane="1"/>

    <connection from="-162043157#0" to="-162043156" fromLane="1" toLane="1"/>
    <connection from="-162043157#0" to="518474788" fromLane="1" toLane="1"/>
    <connection from="-162043157#0" to="162043157#0" fromLane="1" toLane="1"/>

    <connection from="-162043157#1" to="39368523" fromLane="1" toLane="1"/>
    <connection from="-162043157#1" to="-162043157#0" fromLane="1" toLane="1"/>
    <connection from="-162043157#1" to="162043157#1" fromLane="1" toLane="1"/>

    <connection from="-162154108#0" to="162154108#0" fromLane="0" toLane="0"/>

    <connection from="-162154108#1" to="-162154108#0" fromLane="0" toLane="0"/>
    <connection from="-162154108#1" to="162154113" fromLane="0" toLane="0"/>
    <connection from="-162154108#1" to="162154108#1" fromLane="0" toLane="0"/>

    <connection from="-179109642#0" to="-28885055#0" fromLane="1" toLane="1"/>
    <connection from="-179109642#0" to="28885055#1" fromLane="1" toLane="1"/>
    <connection from="-179109642#0" to="179109642#0" fromLane="1" toLane="1"/>

    <connection from="-179109642#1" to="27803780#1" fromLane="1" toLane="1"/>
    <connection from="-179109642#1" to="-179109642#0" fromLane="1" toLane="1"/>
    <connection from="-179109642#1" to="-27803780#0" fromLane="1" toLane="1"/>
    <connection from="-179109642#1" to="179109642#1" fromLane="1" toLane="1"/>

    <connection from="-179109642#2" to="-179109642#1" fromLane="1" toLane="1"/>
    <connection from="-179109642#2" to="28788370#0" fromLane="1" toLane="1"/>
    <connection from="-179109642#2" to="179109642#2" fromLane="1" toLane="1"/>

    <connection from="-221893217#0" to="4734472" fromLane="1" toLane="1"/>
    <connection from="-221893217#0" to="221893217#0" fromLane="1" toLane="1"/>

    <connection from="-221893217#1" to="-221893217#0" fromLane="1" toLane="1"/>
    <connection from="-221893217#1" to="-548651990#1" fromLane="1" toLane="1"/>
    <connection from="-221893217#1" to="221893217#1" fromLane="1" toLane="1"/>

    <connection from="-221893217#2" to="-221893217#1" fromLane="1" toLane="1"/>
    <connection from="-221893217#2" to="-511815820" fromLane="1" toLane="1"/>
    <connection from="-221893217#2" to="221893217#2" fromLane="1" toLane="1"/>

    <connection from="-221893217#3" to="-221893217#2" fromLane="1" toLane="1"/>
    <connection from="-221893217#3" to="-511815819" fromLane="1" toLane="1"/>
    <connection from="-221893217#3" to="221893217#3" fromLane="1" toLane="1"/>

    <connection from="-221893217#4" to="-221893217#3" fromLane="1" toLane="1"/>
    <connection from="-221893217#4" to="-221893225" fromLane="1" toLane="1"/>
    <connection from="-221893217#4" to="221893217#4" fromLane="1" toLane="1"/>

    <connection from="-221893225" to="221893285#1" fromLane="1" toLane="1"/>
    <connection from="-221893225" to="-221893285#0" fromLane="1" toLane="1"/>
    <connection from="-221893225" to="221893225" fromLane="1" toLane="1"/>

    <connection from="-221893257" to="221893257" fromLane="1" toLane="1"/>

    <connection from="-221893285#0" to="221893285#0" fromLane="1" toLane="1"/>

    <connection from="-221893285#1" to="-221893285#0" fromLane="1" toLane="1"/>
    <connection from="-221893285#1" to="221893225" fromLane="1" toLane="1"/>
    <connection from="-221893285#1" to="221893285#1" fromLane="1" toLane="1"/>

    <connection from="-229481708#0" to="402922224" fromLane="1" toLane="1"/>
    <connection from="-229481708#0" to="402922224" fromLane="2" toLane="2"/>

    <connection from="-229481708#2" to="-39368522#5" fromLane="1" toLane="1"/>
    <connection from="-229481708#2" to="-229481708#0" fromLane="1" toLane="1"/>
    <connection from="-229481708#2" to="-229481708#0" fromLane="2" toLane="2"/>
    <connection from="-229481708#2" to="229481708#2" fromLane="2" toLane="2"/>

    <connection from="-27467656" to="27467656" fromLane="1" toLane="1"/>

    <connection from="-27490680" to="319453543#1" fromLane="1" toLane="1"/>
    <connection from="-27490680" to="319453543#1" fromLane="1" toLane="2"/>
    <connection from="-27490680" to="27490680" fromLane="1" toLane="1"/>

    <connection from="-27570527#0" to="27570526#1" fromLane="1" toLane="1"/>
    <connection from="-27570527#0" to="27570527#0" fromLane="1" toLane="1"/>

    <connection from="-27570527#1" to="28788360#2" fromLane="1" toLane="1"/>
    <connection from="-27570527#1" to="-27570527#0" fromLane="1" toLane="1"/>
    <connection from="-27570527#1" to="27570527#1" fromLane="1" toLane="1"/>

    <connection from="-27570527#2" to="-4902394#2" fromLane="1" toLane="1"/>
    <connection from="-27570527#2" to="-27570527#1" fromLane="1" toLane="1"/>
    <connection from="-27570527#2" to="4902394#3" fromLane="1" toLane="1"/>
    <connection from="-27570527#2" to="27570527#2" fromLane="1" toLane="1"/>

    <connection from="-27570527#3" to="-28885040#2" fromLane="1" toLane="1"/>
    <connection from="-27570527#3" to="-27570527#2" fromLane="1" toLane="1"/>
    <connection from="-27570527#3" to="28885040#3" fromLane="1" toLane="1"/>
    <connection from="-27570527#3" to="27570527#3" fromLane="1" toLane="1"/>

    <connection from="-27570527#4" to="-27570528#2" fromLane="1" toLane="1"/>
    <connection from="-27570527#4" to="-27570527#3" fromLane="1" toLane="1"/>
    <connection from="-27570527#4" to="27570528#3" fromLane="1" toLane="1"/>
    <connection from="-27570527#4" to="27570527#4" fromLane="1" toLane="1"/>

    <connection from="-27570528#0" to="161392064#3" fromLane="1" toLane="1"/>
    <connection from="-27570528#0" to="549928635" fromLane="1" toLane="3"/>
    <connection from="-27570528#0" to="27570528#0" fromLane="1" toLane="1"/>

    <connection from="-27570528#1" to="-27570528#0" fromLane="1" toLane="1"/>
    <connection from="-27570528#1" to="-28788365#2" fromLane="1" toLane="1"/>
    <connection from="-27570528#1" to="27570528#1" fromLane="1" toLane="1"/>

    <connection from="-27570528#2" to="549928648#3" fromLane="1" toLane="1"/>
    <connection from="-27570528#2" to="-27570528#1" fromLane="1" toLane="1"/>
    <connection from="-27570528#2" to="-549928648#2" fromLane="1" toLane="1"/>
    <connection from="-27570528#2" to="27570528#2" fromLane="1" toLane="1"/>

    <connection from="-27570528#3" to="27570527#4" fromLane="1" toLane="1"/>
    <connection from="-27570528#3" to="-27570528#2" fromLane="1" toLane="1"/>
    <connection from="-27570528#3" to="-27570527#3" fromLane="1" toLane="1"/>
    <connection from="-27570528#3" to="27570528#3" fromLane="1" toLane="1"/>

    <connection from="-27570528#4" to="-27570528#3" fromLane="1" toLane="1"/>
    <connection from="-27570528#4" to="-28788361#2" fromLane="1" toLane="1"/>
    <connection from="-27570528#4" to="27570528#4" fromLane="1" toLane="1"/>

    <connection from="-27803780#0" to="-28885055#1" fromLane="1" toLane="1"/>
    <connection from="-27803780#0" to="-27840838#2" fromLane="1" toLane="1"/>
    <connection from="-27803780#0" to="27803780#0" fromLane="1" toLane="1"/>

    <connection from="-27803780#1" to="-179109642#0" fromLane="1" toLane="1"/>
    <connection from="-27803780#1" to="-27803780#0" fromLane="1" toLane="1"/>
    <connection from="-27803780#1" to="179109642#1" fromLane="1" toLane="1"/>
    <connection from="-27803780#1" to="27803780#1" fromLane="1" toLane="1"/>

    <connection from="-27803780#2" to="-341224416" fromLane="1" toLane="1"/>
    <connection from="-27803780#2" to="-27803780#1" fromLane="1" toLane="1"/>
    <connection from="-27803780#2" to="-28788366" fromLane="1" toLane="1"/>
    <connection from="-27803780#2" to="27803780#2" fromLane="1" toLane="1"/>

    <connection from="-27840836" to="161392064#5" fromLane="1" toLane="1"/>
    <connection from="-27840836" to="27840836" fromLane="1" toLane="1"/>

    <connection from="-27840838#0" to="-27490680" fromLane="1" toLane="1"/>
    <connection from="-27840838#0" to="-28788368#1" fromLane="1" toLane="1"/>
    <connection from="-27840838#0" to="27840838#0" fromLane="1" toLane="1"/>

    <connection from="-27840838#1" to="-27840838#0" fromLane="1" toLane="1"/>
    <connection from="-27840838#1" to="-28788370#1" fromLane="1" toLane="1"/>
    <connection from="-27840838#1" to="27840838#1" fromLane="1" toLane="1"/>

    <connection from="-27840838#2" to="-473691594" fromLane="1" toLane="1"/>
    <connection from="-27840838#2" to="-27840838#1" fromLane="1" toLane="1"/>
    <connection from="-27840838#2" to="27840838#2" fromLane="1" toLane="1"/>

    <connection from="-27840840#0" to="-28788368#0" fromLane="1" toLane="1"/>
    <connection from="-27840840#0" to="28788368#1" fromLane="1" toLane="1"/>
    <connection from="-27840840#0" to="27840840#0" fromLane="1" toLane="1"/>

    <connection from="-27840840#1" to="-28788371#1" fromLane="1" toLane="1"/>
    <connection from="-27840840#1" to="-27840840#0" fromLane="1" toLane="1"/>
    <connection from="-27840840#1" to="27840840#1" fromLane="1" toLane="1"/>

    <connection from="-27840840#2" to="-179109642#2" fromLane="1" toLane="1"/>
    <connection from="-27840840#2" to="-27840840#1" fromLane="1" toLane="1"/>
    <connection from="-27840840#2" to="27840840#2" fromLane="1" toLane="1"/>

    <connection from="-27840840#3" to="28788366" fromLane="1" toLane="1"/>
    <connection from="-27840840#3" to="-27840840#2" fromLane="1" toLane="1"/>
    <connection from="-27840840#3" to="-27840836" fromLane="1" toLane="1"/>
    <connection from="-27840840#3" to="27840840#3" fromLane="1" toLane="1"/>

    <connection from="-27840840#4" to="340955664" fromLane="1" toLane="1"/>
    <connection from="-27840840#4" to="-27840840#3" fromLane="1" toLane="1"/>
    <connection from="-27840840#4" to="27840840#4" fromLane="1" toLane="1"/>

    <connection from="-27840841#0" to="-27803780#2" fromLane="1" toLane="1"/>
    <connection from="-27840841#0" to="-340955664" fromLane="1" toLane="1"/>
    <connection from="-27840841#0" to="340955662" fromLane="1" toLane="1"/>
    <connection from="-27840841#0" to="27840841#0" fromLane="1" toLane="1"/>

    <connection from="-27840841#1" to="28788384" fromLane="1" toLane="1"/>
    <connection from="-27840841#1" to="-27840841#0" fromLane="1" toLane="1"/>
    <connection from="-27840841#1" to="27840841#1" fromLane="1" toLane="1"/>

    <connection from="-28788361#0" to="28788360#1" fromLane="1" toLane="1"/>
    <connection from="-28788361#0" to="327764058" fromLane="1" toLane="1"/>
    <connection from="-28788361#0" to="327764057#0" fromLane="1" toLane="1"/>
    <connection from="-28788361#0" to="28788361#0" fromLane="1" toLane="1"/>

    <connection from="-28788361#1" to="-4902394#3" fromLane="1" toLane="1"/>
    <connection from="-28788361#1" to="-28788361#0" fromLane="1" toLane="1"/>
    <connection from="-28788361#1" to="4902394#4" fromLane="1" toLane="1"/>
    <connection from="-28788361#1" to="28788361#1" fromLane="1" toLane="1"/>

    <connection from="-28788361#2" to="-28885040#3" fromLane="1" toLane="1"/>
    <connection from="-28788361#2" to="-28788361#1" fromLane="1" toLane="1"/>
    <connection from="-28788361#2" to="28885040#4" fromLane="1" toLane="1"/>
    <connection from="-28788361#2" to="28788361#2" fromLane="1" toLane="1"/>

    <connection from="-28788362" to="4902394#0" fromLane="1" toLane="1"/>
    <connection from="-28788362" to="161392064#0" fromLane="1" toLane="3"/>
    <connection from="-28788362" to="28788362" fromLane="1" toLane="1"/>

    <connection from="-28788365#0" to="327764059#1" fromLane="1" toLane="1"/>
    <connection from="-28788365#0" to="28788365#0" fromLane="1" toLane="1"/>

    <connection from="-28788365#1" to="-4902394#0" fromLane="1" toLane="1"/>
    <connection from="-28788365#1" to="-28788365#0" fromLane="1" toLane="1"/>
    <connection from="-28788365#1" to="4902394#1" fromLane="1" toLane="1"/>
    <connection from="-28788365#1" to="28788365#1" fromLane="1" toLane="1"/>

    <connection from="-28788365#2" to="-28885040#0" fromLane="1" toLane="1"/>
    <connection from="-28788365#2" to="-28788365#1" fromLane="1" toLane="1"/>
    <connection from="-28788365#2" to="28885040#1" fromLane="1" toLane="1"/>
    <connection from="-28788365#2" to="28788365#2" fromLane="1" toLane="1"/>

    <connection from="-28788366" to="-27840840#2" fromLane="1" toLane="1"/>
    <connection from="-28788366" to="-27840836" fromLane="1" toLane="1"/>
    <connection from="-28788366" to="27840840#3" fromLane="1" toLane="1"/>
    <connection from="-28788366" to="28788366" fromLane="1" toLane="1"/>

    <connection from="-28788368#0" to="28788371#1" fromLane="1" toLane="1"/>
    <connection from="-28788368#0" to="-28788371#0" fromLane="1" toLane="1"/>
    <connection from="-28788368#0" to="28788368#0" fromLane="1" toLane="1"/>

    <connection from="-28788368#1" to="27840840#0" fromLane="1" toLane="1"/>
    <connection from="-28788368#1" to="-28788368#0" fromLane="1" toLane="1"/>
    <connection from="-28788368#1" to="28788368#1" fromLane="1" toLane="1"/>

    <connection from="-28788370#0" to="179109642#2" fromLane="1" toLane="1"/>
    <connection from="-28788370#0" to="-179109642#1" fromLane="1" toLane="1"/>
    <connection from="-28788370#0" to="28788370#0" fromLane="1" toLane="1"/>

    <connection from="-28788370#1" to="28788371#0" fromLane="1" toLane="1"/>
    <connection from="-28788370#1" to="-28788370#0" fromLane="1" toLane="1"/>
    <connection from="-28788370#1" to="28788370#1" fromLane="1" toLane="1"/>

    <connection from="-28788371#0" to="-28788370#0" fromLane="1" toLane="1"/>
    <connection from="-28788371#0" to="28788370#1" fromLane="1" toLane="1"/>
    <connection from="-28788371#0" to="28788371#0" fromLane="1" toLane="1"/>

    <connection from="-28788371#1" to="-28788371#0" fromLane="1" toLane="1"/>
    <connection from="-28788371#1" to="28788368#0" fromLane="1" toLane="1"/>
    <connection from="-28788371#1" to="28788371#1" fromLane="1" toLane="1"/>

    <connection from="-28885040#0" to="161392064#1" fromLane="1" toLane="1"/>
    <connection from="-28885040#0" to="28885040#0" fromLane="1" toLane="1"/>

    <connection from="-28885040#1" to="28788365#2" fromLane="1" toLane="1"/>
    <connection from="-28885040#1" to="-28885040#0" fromLane="1" toLane="1"/>
    <connection from="-28885040#1" to="-28788365#1" fromLane="1" toLane="1"/>
    <connection from="-28885040#1" to="28885040#1" fromLane="1" toLane="1"/>

    <connection from="-28885040#2" to="549928648#2" fromLane="1" toLane="1"/>
    <connection from="-28885040#2" to="-28885040#1" fromLane="1" toLane="1"/>
    <connection from="-28885040#2" to="-549928648#1" fromLane="1" toLane="1"/>
    <connection from="-28885040#2" to="28885040#2" fromLane="1" toLane="1"/>

    <connection from="-28885040#3" to="27570527#3" fromLane="1" toLane="1"/>
    <connection from="-28885040#3" to="-28885040#2" fromLane="1" toLane="1"/>
    <connection from="-28885040#3" to="-27570527#2" fromLane="1" toLane="1"/>
    <connection from="-28885040#3" to="28885040#3" fromLane="1" toLane="1"/>

    <connection from="-28885040#4" to="28788361#2" fromLane="1" toLane="1"/>
    <connection from="-28885040#4" to="-28885040#3" fromLane="1" toLane="1"/>
    <connection from="-28885040#4" to="-28788361#1" fromLane="1" toLane="1"/>
    <connection from="-28885040#4" to="28885040#4" fromLane="1" toLane="1"/>

    <connection from="-28885040#5" to="327764057#2" fromLane="1" toLane="1"/>
    <connection from="-28885040#5" to="-28885040#4" fromLane="1" toLane="1"/>
    <connection from="-28885040#5" to="-327764057#1" fromLane="1" toLane="1"/>
    <connection from="-28885040#5" to="28885040#5" fromLane="1" toLane="1"/>

    <connection from="-28885055#0" to="-27803780#1" fromLane="1" toLane="1"/>
    <connection from="-28885055#0" to="-28788366" fromLane="1" toLane="1"/>
    <connection from="-28885055#0" to="27803780#2" fromLane="1" toLane="1"/>
    <connection from="-28885055#0" to="-341224416" fromLane="1" toLane="1"/>

    <connection from="-28885055#1" to="179109642#0" fromLane="1" toLane="1"/>
    <connection from="-28885055#1" to="-28885055#0" fromLane="1" toLane="1"/>
    <connection from="-28885055#1" to="28885055#1" fromLane="1" toLane="1"/>

    <connection from="-28885070#0" to="28885070#0" fromLane="1" toLane="1"/>

    <connection from="-28885070#1" to="-28885070#0" fromLane="1" toLane="1"/>
    <connection from="-28885070#1" to="28885070#1" fromLane="1" toLane="1"/>

    <connection from="-297200000" to="297200000" fromLane="0" toLane="0"/>

    <connection from="-327764057#0" to="28788361#0" fromLane="1" toLane="1"/>
    <connection from="-327764057#0" to="28788360#1" fromLane="1" toLane="1"/>
    <connection from="-327764057#0" to="327764058" fromLane="1" toLane="1"/>
    <connection from="-327764057#0" to="327764057#0" fromLane="1" toLane="1"/>

    <connection from="-327764057#1" to="-4902394#4" fromLane="1" toLane="1"/>
    <connection from="-327764057#1" to="-327764057#0" fromLane="1" toLane="1"/>
    <connection from="-327764057#1" to="4902394#5" fromLane="1" toLane="1"/>
    <connection from="-327764057#1" to="327764057#1" fromLane="1" toLane="1"/>

    <connection from="-327764057#2" to="-28885040#4" fromLane="1" toLane="1"/>
    <connection from="-327764057#2" to="-327764057#1" fromLane="1" toLane="1"/>
    <connection from="-327764057#2" to="28885040#5" fromLane="1" toLane="1"/>
    <connection from="-327764057#2" to="327764057#2" fromLane="1" toLane="1"/>

    <connection from="-327764058" to="327764057#0" fromLane="1" toLane="1"/>
    <connection from="-327764058" to="28788361#0" fromLane="1" toLane="1"/>
    <connection from="-327764058" to="28788360#1" fromLane="1" toLane="1"/>
    <connection from="-327764058" to="327764058" fromLane="1" toLane="1"/>

    <connection from="-340955662" to="27840841#0" fromLane="1" toLane="1"/>
    <connection from="-340955662" to="-27803780#2" fromLane="1" toLane="1"/>
    <connection from="-340955662" to="-340955664" fromLane="1" toLane="1"/>
    <connection from="-340955662" to="340955662" fromLane="1" toLane="1"/>

    <connection from="-340955664" to="-27840840#3" fromLane="1" toLane="1"/>
    <connection from="-340955664" to="27840840#4" fromLane="1" toLane="1"/>
    <connection from="-340955664" to="340955664" fromLane="1" toLane="1"/>

    <connection from="-341224416" to="28885055#1" fromLane="1" toLane="1"/>
    <connection from="-341224416" to="179109642#0" fromLane="1" toLane="1"/>
    <connection from="-341224416" to="-28885055#0" fromLane="1" toLane="1"/>

    <connection from="-343763219#0" to="343763219#0" fromLane="1" toLane="1"/>

    <connection from="-343763219#1" to="343763221" fromLane="1" toLane="1"/>
    <connection from="-343763219#1" to="-343763219#0" fromLane="1" toLane="1"/>
    <connection from="-343763219#1" to="-343763220" fromLane="1" toLane="1"/>
    <connection from="-343763219#1" to="343763219#1" fromLane="1" toLane="1"/>

    <connection from="-343763220" to="343763220" fromLane="1" toLane="1"/>

    <connection from="-343763221" to="-343763219#0" fromLane="1" toLane="1"/>
    <connection from="-343763221" to="-343763220" fromLane="1" toLane="1"/>
    <connection from="-343763221" to="343763219#1" fromLane="1" toLane="1"/>
    <connection from="-343763221" to="343763221" fromLane="1" toLane="1"/>

    <connection from="-386114209" to="143331549#2" fromLane="1" toLane="1"/>
    <connection from="-386114209" to="-143331549#1" fromLane="1" toLane="1"/>
    <connection from="-386114209" to="386114209" fromLane="1" toLane="1"/>

    <connection from="-386114210" to="386114210" fromLane="1" toLane="1"/>

    <connection from="-386278897" to="550860118#2" fromLane="1" toLane="1"/>
    <connection from="-386278897" to="386278897" fromLane="1" toLane="1"/>

    <connection from="-386278913" to="-4902394#5" fromLane="1" toLane="1"/>
    <connection from="-386278913" to="-327764058" fromLane="1" toLane="1"/>
    <connection from="-386278913" to="4902394#7" fromLane="1" toLane="1"/>
    <connection from="-386278913" to="386278913" fromLane="1" toLane="1"/>

    <connection from="-39368522#0" to="39368522#0" fromLane="1" toLane="1"/>

    <connection from="-39368522#1" to="-162043157#1" fromLane="1" toLane="1"/>
    <connection from="-39368522#1" to="-39368522#0" fromLane="1" toLane="1"/>
    <connection from="-39368522#1" to="39368524#0" fromLane="1" toLane="1"/>
    <connection from="-39368522#1" to="39368522#1" fromLane="1" toLane="1"/>

    <connection from="-39368522#2" to="473691589" fromLane="1" toLane="1"/>
    <connection from="-39368522#2" to="-39368522#1" fromLane="1" toLane="1"/>
    <connection from="-39368522#2" to="39368522#2" fromLane="1" toLane="1"/>

    <connection from="-39368522#4" to="-39368523" fromLane="1" toLane="1"/>
    <connection from="-39368522#4" to="-39368522#2" fromLane="1" toLane="1"/>
    <connection from="-39368522#4" to="-518474575" fromLane="1" toLane="2"/>
    <connection from="-39368522#4" to="39368522#4" fromLane="1" toLane="1"/>

    <connection from="-39368522#5" to="162043156" fromLane="1" toLane="1"/>
    <connection from="-39368522#5" to="-39368522#4" fromLane="1" toLane="1"/>
    <connection from="-39368522#5" to="39368522#5" fromLane="1" toLane="1"/>

    <connection from="-39368523" to="-162043157#0" fromLane="1" toLane="1"/>
    <connection from="-39368523" to="162043157#1" fromLane="1" toLane="1"/>
    <connection from="-39368523" to="39368523" fromLane="1" toLane="1"/>

    <connection from="-39368524#0" to="39368522#1" fromLane="1" toLane="1"/>
    <connection from="-39368524#0" to="-162043157#1" fromLane="1" toLane="1"/>
    <connection from="-39368524#0" to="-39368522#0" fromLane="1" toLane="1"/>
    <connection from="-39368524#0" to="39368524#0" fromLane="1" toLane="1"/>

    <connection from="-39368524#1" to="-473691590#1" fromLane="1" toLane="1"/>
    <connection from="-39368524#1" to="-39368524#0" fromLane="1" toLane="1"/>
    <connection from="-39368524#1" to="39368524#1" fromLane="1" toLane="1"/>

    <connection from="-39368524#2" to="473691590#0" fromLane="1" toLane="1"/>
    <connection from="-39368524#2" to="-39368524#1" fromLane="1" toLane="1"/>
    <connection from="-39368524#2" to="39368524#2" fromLane="1" toLane="1"/>

    <connection from="-462566123" to="462566123" fromLane="2" toLane="3"/>

    <connection from="-4734472" to="221893217#0" fromLane="1" toLane="1"/>
    <connection from="-4734472" to="4734472" fromLane="1" toLane="1"/>

    <connection from="-473684642#0" to="327754983" fromLane="1" toLane="2"/>
    <connection from="-473684642#0" to="473684642#0" fromLane="1" toLane="1"/>

    <connection from="-473684642#1" to="-473684642#0" fromLane="1" toLane="1"/>
    <connection from="-473684642#1" to="-473684643" fromLane="1" toLane="1"/>
    <connection from="-473684642#1" to="473684642#1" fromLane="1" toLane="1"/>

    <connection from="-473684643" to="473684643" fromLane="1" toLane="1"/>

    <connection from="-473691589" to="-39368522#1" fromLane="1" toLane="1"/>
    <connection from="-473691589" to="39368522#2" fromLane="1" toLane="1"/>
    <connection from="-473691589" to="473691589" fromLane="1" toLane="1"/>

    <connection from="-473691590#0" to="-39368524#1" fromLane="1" toLane="1"/>
    <connection from="-473691590#0" to="39368524#2" fromLane="1" toLane="1"/>
    <connection from="-473691590#0" to="473691590#0" fromLane="1" toLane="1"/>

    <connection from="-473691590#1" to="-473691590#0" fromLane="1" toLane="1"/>
    <connection from="-473691590#1" to="518474575" fromLane="1" toLane="2"/>
    <connection from="-473691590#1" to="473691590#1" fromLane="1" toLane="1"/>

    <connection from="-473691594" to="-27840841#0" fromLane="1" toLane="1"/>
    <connection from="-473691594" to="27840841#1" fromLane="1" toLane="1"/>
    <connection from="-473691594" to="28788384" fromLane="1" toLane="1"/>

    <connection from="-4774365#0" to="-462566123" fromLane="1" toLane="1"/>
    <connection from="-4774365#0" to="550873590" fromLane="1" toLane="2"/>
    <connection from="-4774365#0" to="550873590" fromLane="2" toLane="3"/>

    <connection from="-4774365#1" to="-4774365#0" fromLane="1" toLane="1"/>
    <connection from="-4774365#1" to="-4774365#0" fromLane="2" toLane="2"/>
    <connection from="-4774365#1" to="4774404" fromLane="2" toLane="1"/>
    <connection from="-4774365#1" to="4774365#1" fromLane="2" toLane="2"/>

    <connection from="-4774404" to="4774365#1" fromLane="1" toLane="1"/>
    <connection from="-4774404" to="-4774365#0" fromLane="1" toLane="2"/>
    <connection from="-4774404" to="4774404" fromLane="1" toLane="1"/>

    <connection from="-4877450" to="143331549#0" fromLane="1" toLane="1"/>
    <connection from="-4877450" to="4877450" fromLane="1" toLane="1"/>

    <connection from="-4877455" to="143331549#1" fromLane="1" toLane="1"/>
    <connection from="-4877455" to="-143331549#0" fromLane="2" toLane="1"/>
    <connection from="-4877455" to="4877455" fromLane="2" toLane="2"/>

    <connection from="-4902377#0" to="8154721#1" fromLane="1" toLane="1"/>
    <connection from="-4902377#0" to="4902428" fromLane="1" toLane="1"/>
    <connection from="-4902377#0" to="-8154721#0" fromLane="1" toLane="1"/>

    <connection from="-4902377#2" to="4902444" fromLane="1" toLane="1"/>
    <connection from="-4902377#2" to="-4902377#0" fromLane="1" toLane="1"/>
    <connection from="-4902377#2" to="-4902447" fromLane="1" toLane="1"/>
    <connection from="-4902377#2" to="4902377#2" fromLane="1" toLane="1"/>

    <connection from="-4902392" to="-4902418#0" fromLane="1" toLane="1"/>
    <connection from="-4902392" to="4902418#1" fromLane="1" toLane="1"/>
    <connection from="-4902392" to="4902392" fromLane="1" toLane="1"/>

    <connection from="-4902394#0" to="161392064#0" fromLane="1" toLane="1"/>
    <connection from="-4902394#0" to="28788362" fromLane="1" toLane="1"/>
    <connection from="-4902394#0" to="4902394#0" fromLane="1" toLane="1"/>

    <connection from="-4902394#1" to="28788365#1" fromLane="1" toLane="1"/>
    <connection from="-4902394#1" to="-4902394#0" fromLane="1" toLane="1"/>
    <connection from="-4902394#1" to="-28788365#0" fromLane="1" toLane="1"/>
    <connection from="-4902394#1" to="4902394#1" fromLane="1" toLane="1"/>

    <connection from="-4902394#2" to="549928648#1" fromLane="1" toLane="1"/>
    <connection from="-4902394#2" to="-4902394#1" fromLane="1" toLane="1"/>
    <connection from="-4902394#2" to="-549928648#0" fromLane="1" toLane="1"/>
    <connection from="-4902394#2" to="4902394#2" fromLane="1" toLane="1"/>

    <connection from="-4902394#3" to="27570527#2" fromLane="1" toLane="1"/>
    <connection from="-4902394#3" to="-4902394#2" fromLane="1" toLane="1"/>
    <connection from="-4902394#3" to="-27570527#1" fromLane="1" toLane="1"/>
    <connection from="-4902394#3" to="4902394#3" fromLane="1" toLane="1"/>

    <connection from="-4902394#4" to="28788361#1" fromLane="1" toLane="1"/>
    <connection from="-4902394#4" to="-4902394#3" fromLane="1" toLane="1"/>
    <connection from="-4902394#4" to="-28788361#0" fromLane="1" toLane="1"/>