<?xml version="1.0" encoding="UTF-8"?>

<!-- generated on Thu Jan  4 15:02:28 2018 by SUMO netconvert Version 0.30.0
<?xml version="1.0" encoding="UTF-8"?>

<configuration xmlns:xsi="http://www.w3.org/2001/XMLSchema-instance" xsi:noNamespaceSchemaLocation="http://sumo.dlr.de/xsd/netconvertConfiguration.xsd">

    <input>
        <type-files value="/media/jefferson/Dados/workspace/sumo-0.30.0/data/typemap/osmNetconvert.typ.xml,/media/jefferson/Dados/workspace/sumo-0.30.0/data/typemap/osmNetconvertUrbanBrSP.typ.xml,/media/jefferson/Dados/workspace/sumo-0.30.0/data/typemap/osmNetconvertPedestrians.typ.xml"/>
        <osm-files value="/media/jefferson/Dados/workspace/GoodsTracker/vanet/sp/sp_bbox.osm.xml"/>
    </input>

    <output>
        <output-file value="/media/jefferson/Dados/workspace/GoodsTracker/vanet/sp/sp.net.xml"/>
        <plain-output-prefix value="/media/jefferson/Dados/workspace/GoodsTracker/vanet/sp/sp"/>
        <output.street-names value="true"/>
        <output.original-names value="true"/>
    </output>

    <projection>
        <proj.utm value="true"/>
    </projection>

    <tls_building>
        <tls.discard-loaded value="false"/>
        <tls.discard-simple value="false"/>
        <tls.join value="true"/>
        <tls.join-dist value="40"/>
        <tls.guess-signals value="false"/>
    </tls_building>

    <ramp_guessing>
        <ramps.guess value="true"/>
    </ramp_guessing>

    <processing>
        <geometry.remove value="true"/>
        <roundabouts.guess value="false"/>
        <junctions.join value="true"/>
        <junctions.join-dist value="5"/>
        <junctions.corner-detail value="5"/>
        <sidewalks.guess value="false"/>
        <crossings.guess value="true"/>
    </processing>

    <building_defaults>
        <default.junctions.radius value="1"/>
    </building_defaults>

    <report>
        <verbose value="true"/>
    </report>

</configuration>
-->

<edges version="0.27" xmlns:xsi="http://www.w3.org/2001/XMLSchema-instance" xsi:noNamespaceSchemaLocation="http://sumo.dlr.de/xsd/edges_file.xsd">
    <edge id="-143331549#0" from="31500259" to="31500254" name="Rua Campo Novo do Sul" priority="6" type="highway.tertiary" numLanes="2" speed="13.89" shape="2126.89,6821.10 2153.85,6817.83 2176.42,6815.68 2199.88,6811.50 2214.03,6806.72">
        <lane index="0" allow="pedestrian" width="2.00"/>
        <lane index="1" disallow="tram rail_urban rail rail_electric pedestrian ship"/>
    </edge>
    <edge id="-143331549#1" from="3894518663" to="31500259" name="Rua Campo Novo do Sul" priority="6" type="highway.tertiary" numLanes="2" speed="13.89" shape="2004.82,6820.40 2038.09,6824.22 2080.72,6825.80 2126.89,6821.10">
        <lane index="0" allow="pedestrian" width="2.00"/>
        <lane index="1" disallow="tram rail_urban rail rail_electric pedestrian ship"/>
    </edge>
    <edge id="-143331549#2" from="298691201" to="3894518663" name="Rua Campo Novo do Sul" priority="6" type="highway.tertiary" numLanes="2" speed="13.89" shape="1378.17,6597.64 1483.11,6602.56 1513.15,6604.04 1903.34,6782.11 1981.97,6814.17 2004.82,6820.40">
        <lane index="0" allow="pedestrian" width="2.00"/>
        <lane index="1" disallow="tram rail_urban rail rail_electric pedestrian ship"/>
    </edge>
    <edge id="-162043156" from="471726990" to="1739882110" name="Rua José Rodrigues Cardeal" priority="4" type="highway.residential" numLanes="2" speed="13.89" shape="3014.24,6222.39 3005.20,6216.52 2993.78,6214.93 2972.64,6214.95 2956.66,6216.77 2937.47,6227.96 2931.53,6235.95 2915.54,6259.46 2911.66,6264.71 2907.09,6266.99 2901.61,6267.46 2894.75,6264.71 2877.16,6254.44 2856.61,6240.97 2846.86,6232.07">
        <lane index="0" allow="pedestrian" width="2.00"/>
        <lane index="1" disallow="tram rail_urban rail rail_electric pedestrian ship"/>
    </edge>
    <edge id="-162043157#0" from="471726992" to="471726990" name="Rua Clermont" priority="4" type="highway.residential" numLanes="2" speed="13.89">
        <lane index="0" allow="pedestrian" width="2.00"/>
        <lane index="1" disallow="tram rail_urban rail rail_electric pedestrian ship"/>
    </edge>
    <edge id="-162043157#1" from="471726983" to="471726992" name="Rua Clermont" priority="4" type="highway.residential" numLanes="2" speed="13.89" shape="2855.46,6470.98 2862.74,6465.89 2870.36,6457.58 2886.26,6433.59 2920.12,6377.73">
        <lane index="0" allow="pedestrian" width="2.00"/>
        <lane index="1" disallow="tram rail_urban rail rail_electric pedestrian ship"/>
    </edge>
    <edge id="-162154108#0" from="1740889619" to="1740889541" priority="2" type="highway.service" numLanes="1" speed="5.56" shape="3197.22,6865.86 3198.74,6839.02 3196.74,6828.41 3193.63,6821.49 3186.81,6812.94 3165.78,6791.52 3156.87,6781.36 3149.55,6770.16 3142.24,6757.90 3128.86,6720.16 3123.11,6712.16 3113.07,6706.74 3098.77,6700.74 3068.05,6688.73 3045.76,6683.18 3020.24,6681.27 2979.74,6686.08 2905.03,6702.64 2847.38,6717.28 2829.16,6727.12 2812.47,6743.32 2770.19,6806.83 2760.27,6835.29 2757.77,6865.43 2760.02,6899.33 2775.33,6953.49 2791.36,6991.25 2819.73,7022.82 2857.05,7061.38 2889.77,7082.95" disallow="tram rail_urban rail rail_electric pedestrian ship"/>
    <edge id="-162154108#1" from="1740889554" to="1740889619" priority="2" type="highway.service" numLanes="1" speed="5.56" shape="3180.95,7034.08 3184.27,7023.00 3191.29,6970.70 3193.51,6931.51 3194.94,6906.27 3197.22,6865.86" disallow="tram rail_urban rail rail_electric pedestrian ship"/>
    <edge id="-179109642#0" from="317497066" to="317497109" name="Rua Engenheiro Américo da Graça Martins" priority="4" type="highway.residential" numLanes="2" speed="13.89">
        <lane index="0" allow="pedestrian" width="2.00"/>
        <lane index="1" disallow="tram rail_urban rail rail_electric pedestrian ship"/>
    </edge>
    <edge id="-179109642#1" from="673738964" to="317497066" name="Rua Engenheiro Américo da Graça Martins" priority="4" type="highway.residential" numLanes="2" speed="13.89">
        <lane index="0" allow="pedestrian" width="2.00"/>
        <lane index="1" disallow="tram rail_urban rail rail_electric pedestrian ship"/>
    </edge>
    <edge id="-179109642#2" from="1894508462" to="673738964" name="Rua Engenheiro Américo da Graça Martins" priority="4" type="highway.residential" numLanes="2" speed="13.89">
        <lane index="0" allow="pedestrian" width="2.00"/>
        <lane index="1" disallow="tram rail_urban rail rail_electric pedestrian ship"/>
    </edge>
    <edge id="-221893217#0" from="2308756841" to="27835530" name="Rua Luís Grassman" priority="5" type="highway.unclassified" numLanes="2" speed="13.89" shape="2678.82,5856.57 2703.75,5894.00 2732.16,5933.68 2806.53,5989.54 2812.48,6001.21 2812.35,6012.30 2790.39,6049.13 2790.74,6062.45 2797.30,6072.14 2805.54,6079.04 2810.08,6081.71 2820.64,6085.89">
        <lane index="0" allow="pedestrian" width="2.00"/>
        <lane index="1" disallow="tram rail_urban rail rail_electric pedestrian ship"/>
    </edge>
    <edge id="-221893217#1" from="2308756843" to="2308756841" name="Rua Luís Grassman" priority="5" type="highway.unclassified" numLanes="2" speed="13.89">
        <lane index="0" allow="pedestrian" width="2.00"/>
        <lane index="1" disallow="tram rail_urban rail rail_electric pedestrian ship"/>
    </edge>
    <edge id="-221893217#2" from="2308756850" to="2308756843" name="Rua Luís Grassman" priority="5" type="highway.unclassified" numLanes="2" speed="13.89" shape="2615.93,5755.19 2626.59,5775.58 2651.95,5816.23">
        <lane index="0" allow="pedestrian" width="2.00"/>
        <lane index="1" disallow="tram rail_urban rail rail_electric pedestrian ship"/>
    </edge>
    <edge id="-221893217#3" from="2308756855" to="2308756850" name="Rua Luís Grassman" priority="5" type="highway.unclassified" numLanes="2" speed="13.89">
        <lane index="0" allow="pedestrian" width="2.00"/>
        <lane index="1" disallow="tram rail_urban rail rail_electric pedestrian ship"/>
    </edge>
    <edge id="-221893217#4" from="317497143" to="2308756855" name="Rua Luís Grassman" priority="5" type="highway.unclassified" numLanes="2" speed="13.89">
        <lane index="0" allow="pedestrian" width="2.00"/>
        <lane index="1" disallow="tram rail_urban rail rail_electric pedestrian ship"/>
    </edge>
    <edge id="-221893225" from="2308756855" to="2308756842" name="Rua Tinoco Barcelos" priority="4" type="highway.residential" numLanes="2" speed="13.89">
        <lane index="0" allow="pedestrian" width="2.00"/>
        <lane index="1" disallow="tram rail_urban rail rail_electric pedestrian ship"/>
    </edge>
    <edge id="-221893257" from="2308756838" to="2308756835" priority="4" type="highway.residential" numLanes="2" speed="13.89" shape="2571.85,5861.32 2569.70,5866.66 2550.75,5882.56">
        <lane index="0" allow="pedestrian" width="2.00"/>
        <lane index="1" disallow="tram rail_urban rail rail_electric pedestrian ship"/>
    </edge>
    <edge id="-221893285#0" from="2308756842" to="2308756848" name="Rua Charles Naufal" priority="4" type="highway.residential" numLanes="2" speed="13.89" shape="2535.49,5820.11 2522.83,5801.56 2498.88,5769.50 2470.72,5756.29">
        <lane index="0" allow="pedestrian" width="2.00"/>
        <lane index="1" disallow="tram rail_urban rail rail_electric pedestrian ship"/>
    </edge>
    <edge id="-221893285#1" from="2308756838" to="2308756842" name="Rua Charles Naufal" priority="4" type="highway.residential" numLanes="2" speed="13.89" shape="2571.85,5861.32 2561.69,5858.49 2535.49,5820.11">
        <lane index="0" allow="pedestrian" width="2.00"/>
        <lane index="1" disallow="tram rail_urban rail rail_electric pedestrian ship"/>
    </edge>
    <edge id="-229481708#0" from="cluster_1739882116_5320190916" to="4053207200" name="Rua Itapaiúna" priority="7" type="highway.secondary" numLanes="3" speed="31.10" shape="2885.63,6147.93 2871.02,6149.18">
        <lane index="0" allow="pedestrian" width="2.00"/>
        <lane index="1" disallow="tram rail_urban rail rail_electric pedestrian ship"/>
        <lane index="2" disallow="tram rail_urban rail rail_electric pedestrian ship"/>
    </edge>
    <edge id="-229481708#2" from="5318790648" to="cluster_1739882116_5320190916" name="Rua Itapaiúna" priority="7" type="highway.secondary" numLanes="3" speed="31.10" shape="2928.07,6142.95 2899.07,6146.52">
        <lane index="0" allow="pedestrian" width="2.00"/>
        <lane index="1" disallow="tram rail_urban rail rail_electric pedestrian ship"/>
        <lane index="2" disallow="tram rail_urban rail rail_electric pedestrian ship"/>
    </edge>
    <edge id="-27467656" from="cluster_1733690337_5320191662" to="3481723221" name="Rua Vitalina Grassman" priority="4" type="highway.residential" numLanes="2" speed="13.89" shape="2616.33,6061.40 2607.72,6049.14 2527.46,5929.07 2483.21,5862.71 2461.71,5772.92">
        <lane index="0" allow="pedestrian" width="2.00"/>
        <lane index="1" disallow="tram rail_urban rail rail_electric pedestrian ship"/>
    </edge>
    <edge id="-27490680" from="3347775420" to="3258690476" name="Rua Gonçalo Pinto" priority="5" type="highway.unclassified" numLanes="2" speed="13.89" shape="2405.47,6119.24 2401.89,6124.75 2400.05,6130.63 2400.09,6137.37 2401.84,6143.82 2414.98,6164.90 2421.13,6175.67">
        <lane index="0" allow="pedestrian" width="2.00"/>
        <lane index="1" disallow="tram rail_urban rail rail_electric pedestrian ship"/>
    </edge>
    <edge id="-27570527#0" from="665140139" to="302727653" name="Rua Antonino de Matos" priority="4" type="highway.residential" numLanes="2" speed="13.89" shape="1725.22,6001.66 1636.40,6014.01 1598.49,6019.32">
        <lane index="0" allow="pedestrian" width="2.00"/>
        <lane index="1" disallow="tram rail_urban rail rail_electric pedestrian ship"/>
    </edge>
    <edge id="-27570527#1" from="317497041" to="665140139" name="Rua Antonino de Matos" priority="4" type="highway.residential" numLanes="2" speed="13.89">
        <lane index="0" allow="pedestrian" width="2.00"/>
        <lane index="1" disallow="tram rail_urban rail rail_electric pedestrian ship"/>
    </edge>
    <edge id="-27570527#2" from="317497043" to="317497041" name="Rua Antonino de Matos" priority="4" type="highway.residential" numLanes="2" speed="13.89">
        <lane index="0" allow="pedestrian" width="2.00"/>
        <lane index="1" disallow="tram rail_urban rail rail_electric pedestrian ship"/>
    </edge>
    <edge id="-27570527#3" from="302727654" to="317497043" name="Rua Antonino de Matos" priority="4" type="highway.residential" numLanes="2" speed="13.89">
        <lane index="0" allow="pedestrian" width="2.00"/>
        <lane index="1" disallow="tram rail_urban rail rail_electric pedestrian ship"/>
    </edge>
    <edge id="-27570527#4" from="317497126" to="302727654" name="Rua Antonino de Matos" priority="4" type="highway.residential" numLanes="2" speed="13.89">
        <lane index="0" allow="pedestrian" width="2.00"/>
        <lane index="1" disallow="tram rail_urban rail rail_electric pedestrian ship"/>
    </edge>
    <edge id="-27570528#0" from="317497054" to="cluster_2524664727_302727655_31945480" name="Rua Aristódemo Gazotti" priority="4" type="highway.residential" numLanes="2" speed="11.11" shape="2025.05,6178.02 2041.88,6264.26 2043.72,6275.62">
        <lane index="0" allow="pedestrian" width="2.00"/>
        <lane index="1" disallow="tram rail_urban rail rail_electric pedestrian ship"/>
    </edge>
    <edge id="-27570528#1" from="317497048" to="317497054" name="Rua Aristódemo Gazotti" priority="4" type="highway.residential" numLanes="2" speed="11.11" shape="2008.25,6065.35 2015.24,6112.22 2025.05,6178.02">
        <lane index="0" allow="pedestrian" width="2.00"/>
        <lane index="1" disallow="tram rail_urban rail rail_electric pedestrian ship"/>
    </edge>
    <edge id="-27570528#2" from="302727654" to="317497048" name="Rua Aristódemo Gazotti" priority="4" type="highway.residential" numLanes="2" speed="11.11">
        <lane index="0" allow="pedestrian" width="2.00"/>
        <lane index="1" disallow="tram rail_urban rail rail_electric pedestrian ship"/>
    </edge>
    <edge id="-27570528#3" from="317497034" to="302727654" name="Rua Aristódemo Gazotti" priority="4" type="highway.residential" numLanes="2" speed="11.11">
        <lane index="0" allow="pedestrian" width="2.00"/>
        <lane index="1" disallow="tram rail_urban rail rail_electric pedestrian ship"/>
    </edge>
    <edge id="-27570528#4" from="4677572075" to="317497034" name="Rua Aristódemo Gazotti" priority="4" type="highway.residential" numLanes="2" speed="11.11">
        <lane index="0" allow="pedestrian" width="2.00"/>
        <lane index="1" disallow="tram rail_urban rail rail_electric pedestrian ship"/>
    </edge>
    <edge id="-27803780#0" from="317497066" to="1894508464" name="Rua João Batista Jordão" priority="4" type="highway.residential" numLanes="2" speed="13.89">
        <lane index="0" allow="pedestrian" width="2.00"/>
        <lane index="1" disallow="tram rail_urban rail rail_electric pedestrian ship"/>
    </edge>
    <edge id="-27803780#1" from="316545140" to="317497066" name="Rua João Batista Jordão" priority="4" type="highway.residential" numLanes="2" speed="13.89">
        <lane index="0" allow="pedestrian" width="2.00"/>
        <lane index="1" disallow="tram rail_urban rail rail_electric pedestrian ship"/>
    </edge>
    <edge id="-27803780#2" from="305663631" to="316545140" name="Rua João Batista Jordão" priority="4" type="highway.residential" numLanes="2" speed="13.89">
        <lane index="0" allow="pedestrian" width="2.00"/>
        <lane index="1" disallow="tram rail_urban rail rail_electric pedestrian ship"/>
    </edge>
    <edge id="-27840836" from="305663662" to="305663670" name="Avenida Tomás de Sousa" priority="4" type="highway.residential" numLanes="2" speed="13.89" shape="2174.87,6178.24 2174.78,6188.38 2173.18,6201.71 2167.78,6216.91 2160.37,6228.72 2152.95,6238.31 2144.17,6250.58 2141.04,6254.98">
        <lane index="0" allow="pedestrian" width="2.00"/>
        <lane index="1" disallow="tram rail_urban rail rail_electric pedestrian ship"/>
    </edge>
    <edge id="-27840838#0" from="317497065" to="3347775420" name="Avenida Tomás de Sousa" priority="4" type="highway.residential" numLanes="2" speed="13.89" shape="2432.16,5995.81 2455.70,6060.53 2455.00,6071.69 2447.87,6080.82 2405.47,6119.24">
        <lane index="0" allow="pedestrian" width="2.00"/>
        <lane index="1" disallow="tram rail_urban rail rail_electric pedestrian ship"/>
    </edge>
    <edge id="-27840838#1" from="3481723203" to="317497065" name="Avenida Tomás de Sousa" priority="4" type="highway.residential" numLanes="2" speed="13.89" shape="2389.00,5934.69 2399.87,5935.95 2409.54,5945.37 2414.99,5950.51 2432.16,5995.81">
        <lane index="0" allow="pedestrian" width="2.00"/>
        <lane index="1" disallow="tram rail_urban rail rail_electric pedestrian ship"/>
    </edge>
    <edge id="-27840838#2" from="1894508464" to="3481723203" name="Avenida Tomás de Sousa" priority="4" type="highway.residential" numLanes="2" speed="13.89">
        <lane index="0" allow="pedestrian" width="2.00"/>
        <lane index="1" disallow="tram rail_urban rail rail_electric pedestrian ship"/>
    </edge>
    <edge id="-27840840#0" from="317497061" to="3481723201" name="Rua Luis Gil" priority="4" type="highway.residential" numLanes="2" speed="13.89">
        <lane index="0" allow="pedestrian" width="2.00"/>
        <lane index="1" disallow="tram rail_urban rail rail_electric pedestrian ship"/>
    </edge>
    <edge id="-27840840#1" from="1894508462" to="317497061" name="Rua Luis Gil" priority="4" type="highway.residential" numLanes="2" speed="13.89">
        <lane index="0" allow="pedestrian" width="2.00"/>
        <lane index="1" disallow="tram rail_urban rail rail_electric pedestrian ship"/>
    </edge>
    <edge id="-27840840#2" from="305663662" to="1894508462" name="Rua Luis Gil" priority="4" type="highway.residential" numLanes="2" speed="13.89">
        <lane index="0" allow="pedestrian" width="2.00"/>
        <lane index="1" disallow="tram rail_urban rail rail_electric pedestrian ship"/>
    </edge>
    <edge id="-27840840#3" from="3481723205" to="305663662" name="Rua Luis Gil" priority="4" type="highway.residential" numLanes="2" speed="13.89">
        <lane index="0" allow="pedestrian" width="2.00"/>
        <lane index="1" disallow="tram rail_urban rail rail_electric pedestrian ship"/>
    </edge>
    <edge id="-27840840#4" from="673738995" to="3481723205" name="Rua Luis Gil" priority="4" type="highway.residential" numLanes="2" speed="13.89">
        <lane index="0" allow="pedestrian" width="2.00"/>
        <lane index="1" disallow="tram rail_urban rail rail_electric pedestrian ship"/>
    </edge>
    <edge id="-27840841#0" from="1894508463" to="305663631" name="Rua Francisco Xavier de Abreu" priority="4" type="highway.residential" numLanes="2" speed="13.89">
        <lane index="0" allow="pedestrian" width="2.00"/>
        <lane index="1" disallow="tram rail_urban rail rail_electric pedestrian ship"/>
    </edge>
    <edge id="-27840841#1" from="3481723206" to="1894508463" name="Rua Francisco Xavier de Abreu" priority="4" type="highway.residential" numLanes="2" speed="13.89" shape="2089.33,5478.17 2089.03,5504.84 2090.85,5546.78 2088.70,5614.34 2096.69,5805.73">
        <lane index="0" allow="pedestrian" width="2.00"/>
        <lane index="1" disallow="tram rail_urban rail rail_electric pedestrian ship"/>
    </edge>
    <edge id="-28788361#0" from="665140134" to="cluster_316545041_316545152" name="Rua Inácio Fonseca" priority="4" type="highway.residential" numLanes="2" speed="13.89" shape="1806.83,5873.87 1717.11,5887.22">
        <lane index="0" allow="pedestrian" width="2.00"/>
        <lane index="1" disallow="tram rail_urban rail rail_electric pedestrian ship"/>
    </edge>
    <edge id="-28788361#1" from="317497037" to="665140134" name="Rua Inácio Fonseca" priority="4" type="highway.residential" numLanes="2" speed="13.89">
        <lane index="0" allow="pedestrian" width="2.00"/>
        <lane index="1" disallow="tram rail_urban rail rail_electric pedestrian ship"/>
    </edge>
    <edge id="-28788361#2" from="317497034" to="317497037" name="Rua Inácio Fonseca" priority="4" type="highway.residential" numLanes="2" speed="13.89">
        <lane index="0" allow="pedestrian" width="2.00"/>
        <lane index="1" disallow="tram rail_urban rail rail_electric pedestrian ship"/>
    </edge>
    <edge id="-28788362" from="3347746100" to="3345788199" name="Rua Amaro Antônio Rosa" priority="4" type="highway.residential" numLanes="2" speed="13.89">
        <lane index="0" allow="pedestrian" width="2.00"/>
        <lane index="1" disallow="tram rail_urban rail rail_electric pedestrian ship"/>
    </edge>
    <edge id="-28788365#0" from="316545067" to="3345788200" name="Rua Antônio Mulatti" priority="4" type="highway.residential" numLanes="2" speed="13.89" shape="1851.06,6206.30 1803.83,6212.77 1799.93,6216.41">
        <lane index="0" allow="pedestrian" width="2.00"/>
        <lane index="1" disallow="tram rail_urban rail rail_electric pedestrian ship"/>
    </edge>
    <edge id="-28788365#1" from="316545133" to="316545067" name="Rua Antônio Mulatti" priority="4" type="highway.residential" numLanes="2" speed="13.89">
        <lane index="0" allow="pedestrian" width="2.00"/>
        <lane index="1" disallow="tram rail_urban rail rail_electric pedestrian ship"/>
    </edge>
    <edge id="-28788365#2" from="317497054" to="316545133" name="Rua Antônio Mulatti" priority="4" type="highway.residential" numLanes="2" speed="13.89">
        <lane index="0" allow="pedestrian" width="2.00"/>
        <lane index="1" disallow="tram rail_urban rail rail_electric pedestrian ship"/>
    </edge>
    <edge id="-28788366" from="316545140" to="305663662" name="Avenida Tomás de Sousa" priority="4" type="highway.residential" numLanes="2" speed="13.89">
        <lane index="0" allow="pedestrian" width="2.00"/>
        <lane index="1" disallow="tram rail_urban rail rail_electric pedestrian ship"/>
    </edge>
    <edge id="-28788368#0" from="3481723201" to="316545144" name="Rua Gonçalo Pinto" priority="4" type="highway.residential" numLanes="2" speed="13.89">
        <lane index="0" allow="pedestrian" width="2.00"/>
        <lane index="1" disallow="tram rail_urban rail rail_electric pedestrian ship"/>
    </edge>
    <edge id="-28788368#1" from="3347775420" to="3481723201" name="Rua Gonçalo Pinto" priority="4" type="highway.residential" numLanes="2" speed="13.89">
        <lane index="0" allow="pedestrian" width="2.00"/>
        <lane index="1" disallow="tram rail_urban rail rail_electric pedestrian ship"/>
    </edge>
    <edge id="-28788370#0" from="680058384" to="673738964" name="Rua Paulo Guimarães" priority="4" type="highway.residential" numLanes="2" speed="13.89">
        <lane index="0" allow="pedestrian" width="2.00"/>
        <lane index="1" disallow="tram rail_urban rail rail_electric pedestrian ship"/>
    </edge>
    <edge id="-28788370#1" from="317497065" to="680058384" name="Rua Paulo Guimarães" priority="4" type="highway.residential" numLanes="2" speed="13.89">
        <lane index="0" allow="pedestrian" width="2.00"/>
        <lane index="1" disallow="tram rail_urban rail rail_electric pedestrian ship"/>
    </edge>
    <edge id="-28788371#0" from="316545144" to="680058384" name="Rua Pedro de Candia" priority="4" type="highway.residential" numLanes="2" speed="13.89">
        <lane index="0" allow="pedestrian" width="2.00"/>
        <lane index="1" disallow="tram rail_urban rail rail_electric pedestrian ship"/>
    </edge>
    <edge id="-28788371#1" from="317497061" to="316545144" name="Rua Pedro de Candia" priority="4" type="highway.residential" numLanes="2" speed="13.89" shape="2282.89,6156.67 2292.55,6054.15 2303.10,6035.70">
        <lane index="0" allow="pedestrian" width="2.00"/>
        <lane index="1" disallow="tram rail_urban rail rail_electric pedestrian ship"/>
    </edge>
    <edge id="-28885040#0" from="316545133" to="317497042" name="Rua Coronel Luís Schimidt" priority="4" type="highway.residential" numLanes="2" speed="11.11" shape="1936.97,6191.87 1950.17,6263.25 1950.51,6271.90">
        <lane index="0" allow="pedestrian" width="2.00"/>
        <lane index="1" disallow="tram rail_urban rail rail_electric pedestrian ship"/>
    </edge>
    <edge id="-28885040#1" from="316545121" to="316545133" name="Rua Coronel Luís Schimidt" priority="4" type="highway.residential" numLanes="2" speed="11.11" shape="1929.59,6078.67 1932.51,6123.45 1936.97,6191.87">
        <lane index="0" allow="pedestrian" width="2.00"/>
        <lane index="1" disallow="tram rail_urban rail rail_electric pedestrian ship"/>
    </edge>
    <edge id="-28885040#2" from="317497043" to="316545121" name="Rua Coronel Luís Schimidt" priority="4" type="highway.residential" numLanes="2" speed="11.11">
        <lane index="0" allow="pedestrian" width="2.00"/>
        <lane index="1" disallow="tram rail_urban rail rail_electric pedestrian ship"/>
    </edge>
    <edge id="-28885040#3" from="317497037" to="317497043" name="Rua Coronel Luís Schimidt" priority="4" type="highway.residential" numLanes="2" speed="11.11">
        <lane index="0" allow="pedestrian" width="2.00"/>
        <lane index="1" disallow="tram rail_urban rail rail_electric pedestrian ship"/>
    </edge>
    <edge id="-28885040#4" from="3345788194" to="317497037" name="Rua Coronel Luís Schimidt" priority="4" type="highway.residential" numLanes="2" speed="11.11">
        <lane index="0" allow="pedestrian" width="2.00"/>
        <lane index="1" disallow="tram rail_urban rail rail_electric pedestrian ship"/>
    </edge>
    <edge id="-28885040#5" from="316545116" to="3345788194" name="Rua Coronel Luís Schimidt" priority="4" type="highway.residential" numLanes="2" speed="11.11">
        <lane index="0" allow="pedestrian" width="2.00"/>
        <lane index="1" disallow="tram rail_urban rail rail_electric pedestrian ship"/>
    </edge>
    <edge id="-28885055#0" from="317497109" to="316545140" name="Avenida Tomás de Sousa" priority="4" type="highway.residential" numLanes="2" speed="13.89" shape="2220.20,5741.96 2206.76,5744.87 2195.12,5749.76 2188.05,5752.73 2154.33,5775.24 2163.87,5943.75">
        <lane index="0" allow="pedestrian" width="2.00"/>
        <lane index="1" disallow="tram rail_urban rail rail_electric pedestrian ship"/>
    </edge>
    <edge id="-28885055#1" from="1894508464" to="317497109" name="Avenida Tomás de Sousa" priority="4" type="highway.residential" numLanes="2" speed="13.89" shape="2329.25,5935.76 2293.15,5908.03 2282.86,5898.28 2280.46,5891.34 2283.72,5866.17 2293.72,5822.31 2302.33,5794.17 2298.45,5771.32 2291.46,5754.70 2276.96,5746.32 2220.20,5741.96">
        <lane index="0" allow="pedestrian" width="2.00"/>
        <lane index="1" disallow="tram rail_urban rail rail_electric pedestrian ship"/>
    </edge>
    <edge id="-28885070#0" from="5005721944" to="3345784090" name="Rua Bernardino Estazione" priority="4" type="highway.residential" numLanes="2" speed="13.89">
        <lane index="0" allow="pedestrian" width="2.00"/>
        <lane index="1" disallow="tram rail_urban rail rail_electric pedestrian ship"/>
    </edge>
    <edge id="-28885070#1" from="317497126" to="5005721944" name="Rua Bernardino Estazione" priority="4" type="highway.residential" numLanes="2" speed="13.89">
        <lane index="0" allow="pedestrian" width="2.00"/>
        <lane index="1" disallow="tram rail_urban rail rail_electric pedestrian ship"/>
    </edge>
    <edge id="-297200000" from="3010493504" to="3010493438" name="Ciclovia dos Trabalhadores" priority="1" type="highway.cycleway" numLanes="1" speed="5.56" shape="3872.40,4896.73 3848.50,4940.47 3637.88,5200.33 3442.40,5456.39 3390.14,5553.17 3361.15,5657.24 3345.37,5760.31 3340.02,5848.09 3343.61,5960.43 3346.93,6013.67 3347.88,6032.21 3359.53,6088.73 3370.65,6145.94 3378.03,6239.10 3381.59,6267.23 3392.73,6312.91 3417.28,6378.12 3420.95,6396.57 3427.81,6413.76 3504.36,6580.95 3552.95,6644.65 3596.84,6680.24 3775.55,6896.75 4000.01,7162.90 4197.60,7401.69 4316.86,7537.35 4463.74,7721.43 4544.06,7813.05 4604.87,7882.40 4752.88,8056.48 4865.27,8178.04 4979.97,8274.57 5097.01,8344.10 5198.78,8388.59 5431.98,8471.32 5588.30,8541.30 5669.35,8587.36 5685.53,8606.32 5821.38,8765.48 5836.95,8810.75 5878.53,8872.35 5927.60,8983.13 5942.92,9049.44 5942.29,9187.68 5952.94,9223.88 5982.20,9389.52 5983.39,9458.67 6001.46,9549.05 6025.91,9690.68 6031.62,9723.73 6055.03,9789.13 6108.31,10053.26 6156.97,10283.27 6229.71,10521.59 6282.11,10690.53 6314.89,10815.16 6348.88,10922.77 6370.03,11008.19 6379.30,11076.43 6413.72,11195.15 6383.45,11282.01 6477.59,11479.87 6537.29,11604.34 6610.74,11783.56 6677.01,11973.73 6762.45,12247.29 6817.51,12448.34 6818.61,12526.52 6810.95,12577.53 6787.85,12656.43" width="1.00" allow="bicycle"/>
    <edge id="-327764057#0" from="3345788195" to="cluster_316545041_316545152" name="Rua Luciano Silva" priority="6" type="highway.tertiary" numLanes="2" speed="31.10" shape="1789.76,5819.39 1715.53,5876.21">
        <lane index="0" allow="pedestrian" width="2.00"/>
        <lane index="1" disallow="tram rail_urban rail rail_electric pedestrian ship"/>
    </edge>
    <edge id="-327764057#1" from="3345788194" to="3345788195" name="Rua Luciano Silva" priority="6" type="highway.tertiary" numLanes="2" speed="31.10" shape="1873.01,5760.97 1856.36,5776.79 1838.35,5791.22 1789.76,5819.39">
        <lane index="0" allow="pedestrian" width="2.00"/>
        <lane index="1" disallow="tram rail_urban rail rail_electric pedestrian ship"/>
    </edge>
    <edge id="-327764057#2" from="3345788193" to="3345788194" name="Rua Luciano Silva" priority="6" type="highway.tertiary" numLanes="2" speed="31.10">