<?xml version="1.0"?>
<!-- generated on 2018-01-06 14:52:42.369295 by $Id: randomTrips.py 23999 2017-04-21 09:04:47Z behrisch $
  options: <doubleminus>seed 42 <doubleminus>fringe-factor 3 <doubleminus>prefix mot <doubleminus>vehicle-class motorcycle -n /media/jefferson/Dados/workspace/gtracker/vanet/sp/sp.net.xml -r /media/jefferson/Dados/workspace/gtracker/vanet/sp/sp.motorcycle.rou.xml -p 4 -e 3600 -o /media/jefferson/Dados/workspace/gtracker/vanet/sp/sp.motorcycle.trips.xml
-->
<routes xmlns:xsi="http://www.w3.org/2001/XMLSchema-instance" xsi:noNamespaceSchemaLocation="http://sumo.dlr.de/xsd/routes_file.xsd">
    <vType id="motorcycle" vClass="motorcycle" />
    <trip id="mot0" depart="0.00" from="329013842" to="-221893225" type="motorcycle"/>
    <trip id="mot1" depart="4.00" from="-490522132" to="-4902451#1" type="motorcycle"/>
    <trip id="mot2" depart="8.00" from="4734475#1" to="4734474" type="motorcycle"/>
    <trip id="mot3" depart="12.00" from="549917967" to="-28788361#2" type="motorcycle"/>
    <trip id="mot4" depart="16.00" from="179109642#2" to="-221893257" type="motorcycle"/>
    <trip id="mot5" depart="20.00" from="-4902377#0" to="28788365#0" type="motorcycle"/>
    <trip id="mot6" depart="24.00" from="-221893217#1" to="-4902418#1" type="motorcycle"/>
    <trip id="mot7" depart="28.00" from="344144147#1" to="319447428#2" type="motorcycle"/>
    <trip id="mot8" depart="32.00" from="-4902377#2" to="329013842" type="motorcycle"/>
    <trip id="mot9" depart="36.00" from="4902408" to="-162043157#0" type="motorcycle"/>
    <trip id="mot10" depart="40.00" from="4902394#5" to="473684642#1" type="motorcycle"/>
    <trip id="mot11" depart="44.00" from="-550867442#2" to="-462566123" type="motorcycle"/>
    <trip id="mot12" depart="48.00" from="550756710#0" to="161392075#1" type="motorcycle"/>
    <trip id="mot13" depart="52.00" from="-27840841#1" to="-28788368#0" type="motorcycle"/>
    <trip id="mot14" depart="56.00" from="4902441" to="386223029" type="motorcycle"/>
    <trip id="mot15" depart="60.00" from="4902399" to="4877450" type="motorcycle"/>
    <trip id="mot16" depart="64.00" from="27840838#0" to="550867442#2" type="motorcycle"/>
    <trip id="mot17" depart="68.00" from="161392064#1" to="319453543#2" type="motorcycle"/>
    <trip id="mot18" depart="72.00" from="4902428" to="39368522#4" type="motorcycle"/>
    <trip id="mot19" depart="76.00" from="4902474" to="327764058" type="motorcycle"/>
    <trip id="mot20" depart="80.00" from="4559074#4" to="-27467656" type="motorcycle"/>
    <trip id="mot21" depart="84.00" from="-4902394#3" to="161389756#0" type="motorcycle"/>
    <trip id="mot22" depart="88.00" from="-27840840#2" to="-518473675" type="motorcycle"/>
    <trip id="mot23" depart="92.00" from="-28788362" to="143331549#2" type="motorcycle"/>
    <trip id="mot24" depart="96.00" from="327956373#0" to="221893217#0" type="motorcycle"/>
    <trip id="mot25" depart="100.00" from="161389764" to="-4902436#0" type="motorcycle"/>
    <trip id="mot26" depart="104.00" from="-4902451#0" to="550749977" type="motorcycle"/>
    <trip id="mot27" depart="108.00" from="344144147#0" to="386278897" type="motorcycle"/>
    <trip id="mot28" depart="112.00" from="-39368522#4" to="4877450" type="motorcycle"/>
    <trip id="mot29" depart="116.00" from="-386278913" to="229481708#0" type="motorcycle"/>
    <trip id="mot30" depart="120.00" from="96097794" to="438155977#1" type="motorcycle"/>
    <trip id="mot31" depart="124.00" from="28788362" to="4734476#0" type="motorcycle"/>
    <trip id="mot32" depart="128.00" from="4902440#3" to="4902414#1" type="motorcycle"/>
    <trip id="mot33" depart="132.00" from="-4902394#3" to="-221893285#0" type="motorcycle"/>
    <trip id="mot34" depart="136.00" from="-549928648#1" to="-8154721#0" type="motorcycle"/>
    <trip id="mot35" depart="140.00" from="-4877450" to="550753287#2" type="motorcycle"/>
    <trip id="mot36" depart="144.00" from="518473680" to="161392064#5" type="motorcycle"/>
    <trip id="mot37" depart="148.00" from="386223029" to="245546867" type="motorcycle"/>
    <trip id="mot38" depart="152.00" from="549939609#0" to="27570528#2" type="motorcycle"/>
    <trip id="mot39" depart="156.00" from="-4902447" to="-549928646#1" type="motorcycle"/>
    <trip id="mot40" depart="160.00" from="28788365#1" to="-550867442#0" type="motorcycle"/>
    <trip id="mot41" depart="164.00" from="28885040#4" to="549939609#2" type="motorcycle"/>
    <trip id="mot42" depart="168.00" from="161392075#0" to="-4902447" type="motorcycle"/>
    <trip id="mot43" depart="172.00" from="96097829#2" to="28788365#2" type="motorcycle"/>
    <trip id="mot44" depart="176.00" from="-27840841#1" to="-27490680" type="motorcycle"/>
    <trip id="mot45" depart="180.00" from="-28788368#1" to="39368524#2" type="motorcycle"/>
    <trip id="mot46" depart="184.00" from="4902378#1" to="247833371#0" type="motorcycle"/>
    <trip id="mot47" depart="188.00" from="-27570528#4" to="245234799#0" type="motorcycle"/>
    <trip id="mot48" depart="192.00" from="96097829#1" to="28885040#3" type="motorcycle"/>
    <trip id="mot49" depart="196.00" from="550860119#2" to="518474788" type="motorcycle"/>
    <trip id="mot50" depart="200.00" from="-162043157#0" to="4806303" type="motorcycle"/>
    <trip id="mot51" depart="204.00" from="4328546#1" to="28885055#1" type="motorcycle"/>
    <trip id="mot52" depart="208.00" from="-4902451#0" to="438155977#1" type="motorcycle"/>
    <trip id="mot53" depart="212.00" from="-28788370#0" to="249870999" type="motorcycle"/>
    <trip id="mot54" depart="216.00" from="245234799#4" to="550756710#0" type="motorcycle"/>
    <trip id="mot55" depart="220.00" from="518473680" to="-550867442#1" type="motorcycle"/>
    <trip id="mot56" depart="224.00" from="249697090#1" to="-4902394#0" type="motorcycle"/>
    <trip id="mot57" depart="228.00" from="549939609#0" to="549917967" type="motorcycle"/>
    <trip id="mot58" depart="232.00" from="-518473678" to="438155977#0" type="motorcycle"/>
    <trip id="mot59" depart="236.00" from="319453543#4" to="-462566123" type="motorcycle"/>
    <trip id="mot60" depart="240.00" from="473691590#0" to="28885070#1" type="motorcycle"/>
    <trip id="mot61" depart="244.00" from="4902370" to="28885040#4" type="motorcycle"/>
    <trip id="mot62" depart="248.00" from="-143331549#0" to="161392068" type="motorcycle"/>
    <trip id="mot63" depart="252.00" from="-179109642#0" to="550735550" type="motorcycle"/>
    <trip id="mot64" depart="256.00" from="518474575" to="518473672" type="motorcycle"/>
    <trip id="mot65" depart="260.00" from="-518474788" to="-27570528#1" type="motorcycle"/>
    <trip id="mot66" depart="264.00" from="518473680" to="550753287#4" type="motorcycle"/>
    <trip id="mot67" depart="268.00" from="-27840840#4" to="27840840#4" type="motorcycle"/>
    <trip id="mot68" depart="272.00" from="-27840836" to="4902394#2" type="motorcycle"/>
    <trip id="mot69" depart="276.00" from="475330829" to="-340955662" type="motorcycle"/>
    <trip id="mot70" depart="280.00" from="245553663#5" to="319453543#1" type="motorcycle"/>
    <trip id="mot71" depart="284.00" from="-4902447" to="549928635" type="motorcycle"/>
    <trip id="mot72" depart="288.00" from="179109642#2" to="-4902436#1" type="motorcycle"/>
    <trip id="mot73" depart="292.00" from="27840838#2" to="4877450" type="motorcycle"/>
    <trip id="mot74" depart="296.00" from="-4774365#1" to="161392064#3" type="motorcycle"/>
    <trip id="mot75" depart="300.00" from="96097829#1" to="4559005#1" type="motorcycle"/>
    <trip id="mot76" depart="304.00" from="221893285#0" to="28788370#1" type="motorcycle"/>
    <trip id="mot77" depart="308.00" from="-28885040#1" to="-4902453" type="motorcycle"/>
    <trip id="mot78" depart="312.00" from="-550867442#2" to="327956374" type="motorcycle"/>
    <trip id="mot79" depart="316.00" from="-4902394#4" to="-4902447" type="motorcycle"/>
    <trip id="mot80" depart="320.00" from="-27840838#0" to="402922224" type="motorcycle"/>
    <trip id="mot81" depart="324.00" from="-4902394#3" to="550712032#0" type="motorcycle"/>
    <trip id="mot82" depart="328.00" from="4902453" to="-27840838#1" type="motorcycle"/>
    <trip id="mot83" depart="332.00" from="-4902399" to="4559084" type="motorcycle"/>
    <trip id="mot84" depart="336.00" from="-4877455" to="-341224416" type="motorcycle"/>
    <trip id="mot85" depart="340.00" from="550725735#0" to="327764057#1" type="motorcycle"/>
    <trip id="mot86" depart="344.00" from="245553663#4" to="4902418#2" type="motorcycle"/>
    <trip id="mot87" depart="348.00" from="4902399" to="-4902414#0" type="motorcycle"/>
    <trip id="mot88" depart="352.00" from="-28788361#1" to="249697090#2" type="motorcycle"/>
    <trip id="mot89" depart="356.00" from="221893217#0" to="27803780#0" type="motorcycle"/>
    <trip id="mot90" depart="360.00" from="4734474" to="462564634" type="motorcycle"/>
    <trip id="mot91" depart="364.00" from="8154721#2" to="-28788368#1" type="motorcycle"/>
    <trip id="mot92" depart="368.00" from="161392075#2" to="161392078" type="motorcycle"/>
    <trip id="mot93" depart="372.00" from="4902474" to="-549928648#1" type="motorcycle"/>
    <trip id="mot94" depart="376.00" from="-473691589" to="27570527#1" type="motorcycle"/>
    <trip id="mot95" depart="380.00" from="179109642#2" to="143331549#2" type="motorcycle"/>
    <trip id="mot96" depart="384.00" from="-4902418#2" to="550732345" type="motorcycle"/>
    <trip id="mot97" depart="388.00" from="221893285#1" to="518474788" type="motorcycle"/>
    <trip id="mot98" depart="392.00" from="28788360#2" to="-27570527#1" type="motorcycle"/>
    <trip id="mot99" depart="396.00" from="96097834" to="518473674" type="motorcycle"/>
    <trip id="mot100" depart="400.00" from="550860119#0" to="550735550" type="motorcycle"/>
    <trip id="mot101" depart="404.00" from="4902444" to="-473691590#0" type="motorcycle"/>
    <trip id="mot102" depart="408.00" from="247833368" to="-4902441" type="motorcycle"/>
    <trip id="mot103" depart="412.00" from="161392075#1" to="-27570528#1" type="motorcycle"/>
    <trip id="mot104" depart="416.00" from="161392064#1" to="8154721#3" type="motorcycle"/>
    <trip id="mot105" depart="420.00" from="-4902447" to="4902418#1" type="motorcycle"/>
    <trip id="mot106" depart="424.00" from="245234799#4" to="247833371#1" type="motorcycle"/>
    <trip id="mot107" depart="428.00" from="550756710#0" to="96097829#1" type="motorcycle"/>
    <trip id="mot108" depart="432.00" from="28788361#2" to="4774404" type="motorcycle"/>
    <trip id="mot109" depart="436.00" from="-386114209" to="161389761#2" type="motorcycle"/>
    <trip id="mot110" depart="440.00" from="550860119#0" to="327764059#0" type="motorcycle"/>
    <trip id="mot111" depart="444.00" from="27840840#1" to="4902374#3" type="motorcycle"/>
    <trip id="mot112" depart="448.00" from="-27570528#2" to="327956373#0" type="motorcycle"/>
    <trip id="mot113" depart="452.00" from="27467656" to="518473678" type="motorcycle"/>
    <trip id="mot114" depart="456.00" from="-386278897" to="550860118#2" type="motorcycle"/>
    <trip id="mot115" depart="460.00" from="-27840840#2" to="-4902394#4" type="motorcycle"/>
    <trip id="mot116" depart="464.00" from="28885070#2" to="4734472" type="motorcycle"/>
    <trip id="mot117" depart="468.00" from="-4902394#7" to="-28885070#0" type="motorcycle"/>
    <trip id="mot118" depart="472.00" from="549815935" to="-549928646#1" type="motorcycle"/>
    <trip id="mot119" depart="476.00" from="28885070#2" to="39368522#4" type="motorcycle"/>
    <trip id="mot120" depart="480.00" from="179109642#0" to="327956372" type="motorcycle"/>
    <trip id="mot121" depart="484.00" from="27570528#1" to="550747490" type="motorcycle"/>
    <trip id="mot122" depart="488.00" from="-4774404" to="4774404" type="motorcycle"/>
    <trip id="mot123" depart="492.00" from="-4902399" to="245546867" type="motorcycle"/>
    <trip id="mot124" depart="496.00" from="39368524#1" to="161389762-AddedOnRampEdge" type="motorcycle"/>
    <trip id="mot125" depart="500.00" from="-549928648#1" to="4902378#1" type="motorcycle"/>
    <trip id="mot126" depart="504.00" from="-27840838#1" to="27570528#2" type="motorcycle"/>
    <trip id="mot127" depart="508.00" from="96097834" to="96097829#1" type="motorcycle"/>
    <trip id="mot128" depart="512.00" from="-27840838#1" to="-4902441" type="motorcycle"/>
    <trip id="mot129" depart="516.00" from="-4902447" to="550745968" type="motorcycle"/>
    <trip id="mot130" depart="520.00" from="548651990#0" to="549928642#3" type="motorcycle"/>
    <trip id="mot131" depart="524.00" from="161389764" to="-4734472" type="motorcycle"/>
    <trip id="mot132" depart="528.00" from="4902436#0" to="473691589" type="motorcycle"/>
    <trip id="mot133" depart="532.00" from="319453543#5" to="8154723" type="motorcycle"/>
    <trip id="mot134" depart="536.00" from="380438949#1" to="-162043157#1" type="motorcycle"/>
    <trip id="mot135" depart="540.00" from="4902416#2" to="161389762-AddedOnRampEdge" type="motorcycle"/>
    <trip id="mot136" depart="544.00" from="39368522#2" to="550753286" type="motorcycle"/>
    <trip id="mot137" depart="548.00" from="-28885055#1" to="-28885055#1" type="motorcycle"/>
    <trip id="mot138" depart="552.00" from="-28788366" to="319453543#3" type="motorcycle"/>
    <trip id="mot139" depart="556.00" from="-4902451#2" to="386223029" type="motorcycle"/>
    <trip id="mot140" depart="560.00" from="4559381" to="-4902418#4" type="motorcycle"/>
    <trip id="mot141" depart="564.00" from="327956373#0" to="-550867442#1" type="motorcycle"/>
    <trip id="mot142" depart="568.00" from="247833369#1" to="550712032#0" type="motorcycle"/>
    <trip id="mot143" depart="572.00" from="4902441" to="-28788365#2" type="motorcycle"/>
    <trip id="mot144" depart="576.00" from="221893217#0" to="143331549#2" type="motorcycle"/>
    <trip id="mot145" depart="580.00" from="-143331549#2" to="4902394#7" type="motorcycle"/>
    <trip id="mot146" depart="584.00" from="327956373#1" to="-550867442#0" type="motorcycle"/>
    <trip id="mot147" depart="588.00" from="4734475#4" to="319453543#2" type="motorcycle"/>
    <trip id="mot148" depart="592.00" from="221893217#2" to="-162154108#0" type="motorcycle"/>
    <trip id="mot149" depart="596.00" from="-27840838#2" to="549928646#1" type="motorcycle"/>
    <trip id="mot150" depart="600.00" from="549928646#1" to="319447428#2" type="motorcycle"/>
    <trip id="mot151" depart="604.00" from="4902436#0" to="327956372" type="motorcycle"/>
    <trip id="mot152" depart="608.00" from="-340955662" to="-327764058" type="motorcycle"/>
    <trip id="mot153" depart="612.00" from="-518474788" to="549939609#3" type="motorcycle"/>
    <trip id="mot154" depart="616.00" from="4902394#0" to="518474788" type="motorcycle"/>
    <trip id="mot155" depart="620.00" from="549928642#2" to="-4902436#0" type="motorcycle"/>
    <trip id="mot156" depart="624.00" from="-4902418#1" to="-28788371#0" type="motorcycle"/>
    <trip id="mot157" depart="628.00" from="4902373" to="549928648#0" type="motorcycle"/>
    <trip id="mot158" depart="632.00" from="161392080" to="39368522#5" type="motorcycle"/>
    <trip id="mot159" depart="636.00" from="-386114209" to="550735550" type="motorcycle"/>
    <trip id="mot160" depart="640.00" from="511815820" to="550867442#2" type="motorcycle"/>
    <trip id="mot161" depart="644.00" from="4902414#1" to="549928646#0" type="motorcycle"/>
    <trip id="mot162" depart="648.00" from="-221893217#0" to="4877455" type="motorcycle"/>
    <trip id="mot163" depart="652.00" from="-550757841" to="550735550" type="motorcycle"/>
    <trip id="mot164" depart="656.00" from="4902394#3" to="548651990#1" type="motorcycle"/>
    <trip id="mot165" depart="660.00" from="4902414#1" to="-8154721#0" type="motorcycle"/>
    <trip id="mot166" depart="664.00" from="4902374#3" to="-28885040#1" type="motorcycle"/>
    <trip id="mot167" depart="668.00" from="518473679" to="518474788" type="motorcycle"/>
    <trip id="mot168" depart="672.00" from="-4902392" to="4902451#2" type="motorcycle"/>
    <trip id="mot169" depart="676.00" from="245546865" to="161392059#0" type="motorcycle"/>
    <trip id="mot170" depart="680.00" from="4902392" to="-4902453" type="motorcycle"/>
    <trip id="mot171" depart="684.00" from="-221893217#0" to="-4902414#2" type="motorcycle"/>
    <trip id="mot172" depart="688.00" from="-550741745" to="548651990#1" type="motorcycle"/>
    <trip id="mot173" depart="692.00" from="550860118#3" to="143331549#2" type="motorcycle"/>
    <trip id="mot174" depart="696.00" from="340955662" to="245553663#3" type="motorcycle"/>
    <trip id="mot175" depart="700.00" from="8148885#1" to="28885055#1" type="motorcycle"/>
    <trip id="mot176" depart="704.00" from="550735549" to="-28885055#1" type="motorcycle"/>
    <trip id="mot177" depart="708.00" from="550860119#2" to="-4902394#0" type="motorcycle"/>
    <trip id="mot178" depart="712.00" from="550860118#0" to="-550873590" type="motorcycle"/>
    <trip id="mot179" depart="716.00" from="-28788368#0" to="249870999" type="motorcycle"/>
    <trip id="mot180" depart="720.00" from="4734474" to="161392064#4" type="motorcycle"/>
    <trip id="mot181" depart="724.00" from="319453543#2" to="28788366" type="motorcycle"/>
    <trip id="mot182" depart="728.00" from="161392065" to="327764057#2" type="motorcycle"/>
    <trip id="mot183" depart="732.00" from="-4902426" to="475330829" type="motorcycle"/>
    <trip id="mot184" depart="736.00" from="-143331549#1" to="550735549" type="motorcycle"/>
    <trip id="mot185" depart="740.00" from="27840838#2" to="4774404" type="motorcycle"/>
    <trip id="mot186" depart="744.00" from="4734475#4" to="4559087" type="motorcycle"/>
    <trip id="mot187" depart="748.00" from="161389761#1" to="-27840838#0" type="motorcycle"/>
    <trip id="mot188" depart="752.00" from="39368522#2" to="161392072" type="motorcycle"/>
    <trip id="mot189" depart="756.00" from="-549928648#0" to="518473677" type="motorcycle"/>
    <trip id="mot190" depart="760.00" from="4559381" to="161389762-AddedOnRampEdge" type="motorcycle"/>
    <trip id="mot191" depart="764.00" from="-548651990#1" to="245553663#8" type="motorcycle"/>
    <trip id="mot192" depart="768.00" from="161392075#2" to="161389761#1" type="motorcycle"/>
    <trip id="mot193" depart="772.00" from="-28885040#5" to="247833370#1" type="motorcycle"/>
    <trip id="mot194" depart="776.00" from="550741745" to="4734474" type="motorcycle"/>
    <trip id="mot195" depart="780.00" from="549928646#0" to="39368522#1" type="motorcycle"/>
    <trip id="mot196" depart="784.00" from="-518473679" to="319453543#0" type="motorcycle"/>
    <trip id="mot197" depart="788.00" from="-143331549#0" to="15968349" type="motorcycle"/>
    <trip id="mot198" depart="792.00" from="221893217#3" to="327764059#0" type="motorcycle"/>
    <trip id="mot199" depart="796.00" from="386223029" to="27570528#4" type="motorcycle"/>
    <trip id="mot200" depart="800.00" from="221893285#1" to="-4902441" type="motorcycle"/>
    <trip id="mot201" depart="804.00" from="245553663#4" to="550674386" type="motorcycle"/>
    <trip id="mot202" depart="808.00" from="4902394#0" to="-473691594" type="motorcycle"/>
    <trip id="mot203" depart="812.00" from="-27840840#4" to="28788370#0" type="motorcycle"/>
    <trip id="mot204" depart="816.00" from="327956372" to="161392075#0" type="motorcycle"/>
    <trip id="mot205" depart="820.00" from="4902418#1" to="4902378#0" type="motorcycle"/>
    <trip id="mot206" depart="824.00" from="39368524#1" to="-4902453" type="motorcycle"/>
    <trip id="mot207" depart="828.00" from="-4774365#1" to="-221893217#3" type="motorcycle"/>
    <trip id="mot208" depart="832.00" from="-4902414#3" to="27840838#1" type="motorcycle"/>
    <trip id="mot209" depart="836.00" from="4902444" to="-27840838#2" type="motorcycle"/>
    <trip id="mot210" depart="840.00" from="162154108#0" to="401773368" type="motorcycle"/>
    <trip id="mot211" depart="844.00" from="-473691594" to="473684642#0" type="motorcycle"/>
    <trip id="mot212" depart="848.00" from="247833371#1" to="-549928646#0" type="motorcycle"/>
    <trip id="mot213" depart="852.00" from="39368522#0" to="-162043157#0" type="motorcycle"/>
    <trip id="mot214" depart="856.00" from="473684641#0" to="4902394#7" type="motorcycle"/>
    <trip id="mot215" depart="860.00" from="-28788366" to="247833371#1-AddedOnRampEdge" type="motorcycle"/>
    <trip id="mot216" depart="864.00" from="-39368524#0" to="550860118#0" type="motorcycle"/>
    <trip id="mot217" depart="868.00" from="27570527#3" to="-27570527#1" type="motorcycle"/>
    <trip id="mot218" depart="872.00" from="-4902418#1" to="518473677" type="motorcycle"/>
    <trip id="mot219" depart="876.00" from="245234799#5" to="4902440#0" type="motorcycle"/>
    <trip id="mot220" depart="880.00" from="39368522#5" to="8154723" type="motorcycle"/>
    <trip id="mot221" depart="884.00" from="319447428#0" to="550753287#5" type="motorcycle"/>
    <trip id="mot222" depart="888.00" from="549915319" to="386278913" type="motorcycle"/>
    <trip id="mot223" depart="892.00" from="4559381" to="28788362" type="motorcycle"/>
    <trip id="mot224" depart="896.00" from="4902431" to="319453543#0" type="motorcycle"/>
    <trip id="mot225" depart="900.00" from="549928642#1" to="4902374#1" type="motorcycle"/>
    <trip id="mot226" depart="904.00" from="245553663#5" to="-550757841" type="motorcycle"/>
    <trip id="mot227" depart="908.00" from="-4902418#0" to="4328546#2" type="motorcycle"/>
    <trip id="mot228" depart="912.00" from="475330829" to="28788371#1" type="motorcycle"/>
    <trip id="mot229" depart="916.00" from="327764057#1" to="143331549#0" type="motorcycle"/>
    <trip id="mot230" depart="920.00" from="-27840840#0" to="15968349" type="motorcycle"/>
    <trip id="mot231" depart="924.00" from="-4902451#2" to="161392067" type="motorcycle"/>
    <trip id="mot232" depart="928.00" from="27840840#0" to="-39368522#1" type="motorcycle"/>
    <trip id="mot233" depart="932.00" from="-4902394#5" to="473684641#0" type="motorcycle"/>
    <trip id="mot234" depart="936.00" from="4559074#5" to="-27803780#1" type="motorcycle"/>
    <trip id="mot235" depart="940.00" from="161392081" to="319447428#0" type="motorcycle"/>
    <trip id="mot236" depart="944.00" from="162154108#0" to="-4902428" type="motorcycle"/>
    <trip id="mot237" depart="948.00" from="179109642#1" to="550712032#0" type="motorcycle"/>
    <trip id="mot238" depart="952.00" from="28885040#4" to="473684641#1" type="motorcycle"/>
    <trip id="mot239" depart="956.00" from="4902453" to="4902394#5" type="motorcycle"/>
    <trip id="mot240" depart="960.00" from="161392064#3" to="-162043157#0" type="motorcycle"/>
    <trip id="mot241" depart="964.00" from="143331549#0" to="4902391" type="motorcycle"/>
    <trip id="mot242" depart="968.00" from="4902451#1" to="550756710#0" type="motorcycle"/>
    <trip id="mot243" depart="972.00" from="179109642#0" to="4902374#3" type="motorcycle"/>
    <trip id="mot244" depart="976.00" from="27840840#3" to="386114209" type="motorcycle"/>
    <trip id="mot245" depart="980.00" from="-4902377#2" to="-4902447" type="motorcycle"/>
    <trip id="mot246" depart="984.00" from="221893257" to="-221893257" type="motorcycle"/>
    <trip id="mot247" depart="988.00" from="-550867442#1" to="4734475#1" type="motorcycle"/>
    <trip id="mot248" depart="992.00" from="161392078" to="-473684643" type="motorcycle"/>
    <trip id="mot249" depart="996.00" from="245553663#1" to="-327764058" type="motorcycle"/>
    <trip id="mot250" depart="1000.00" from="327754983" to="-221893257" type="motorcycle"/>
    <trip id="mot251" depart="1004.00" from="161392072" to="323823408" type="motorcycle"/>
    <trip id="mot252" depart="1008.00" from="-221893217#2" to="438155977#1" type="motorcycle"/>
    <trip id="mot253" depart="1012.00" from="-28885070#1" to="27570528#4" type="motorcycle"/>
    <trip id="mot254" depart="1016.00" from="-27570527#3" to="229481708#0" type="motorcycle"/>
    <trip id="mot255" depart="1020.00" from="-4877450" to="161392069#1" type="motorcycle"/>
    <trip id="mot256" depart="1024.00" from="473684643" to="229481708#0" type="motorcycle"/>
    <trip id="mot257" depart="1028.00" from="473684641#0" to="518473672" type="motorcycle"/>
    <trip id="mot258" depart="1032.00" from="-4902418#3" to="-27840841#0" type="motorcycle"/>
    <trip id="mot259" depart="1036.00" from="-179109642#0" to="28885070#1" type="motorcycle"/>
    <trip id="mot260" depart="1040.00" from="96097834" to="162154108#1" type="motorcycle"/>
    <trip id="mot261" depart="1044.00" from="344144147#1" to="4902416#0" type="motorcycle"/>
    <trip id="mot262" depart="1048.00" from="380438949#0" to="4902391" type="motorcycle"/>
    <trip id="mot263" depart="1052.00" from="550753287#1" to="-4902418#2" type="motorcycle"/>
    <trip id="mot264" depart="1056.00" from="-179109642#1" to="-462566123" type="motorcycle"/>
    <trip id="mot265" depart="1060.00" from="-28885040#4" to="4559087" type="motorcycle"/>
    <trip id="mot266" depart="1064.00" from="28788366" to="-4902444" type="motorcycle"/>
    <trip id="mot267" depart="1068.00" from="4559074#1" to="4902394#7" type="motorcycle"/>
    <trip id="mot268" depart="1072.00" from="-39368522#1" to="386278897" type="motorcycle"/>
    <trip id="mot269" depart="1076.00" from="4734488" to="-28885055#0" type="motorcycle"/>
    <trip id="mot270" depart="1080.00" from="4902418#1" to="550860119#0" type="motorcycle"/>
    <trip id="mot271" depart="1084.00" from="-28788368#0" to="-221893225" type="motorcycle"/>
    <trip id="mot272" depart="1088.00" from="-549928646#0" to="4734474" type="motorcycle"/>
    <trip id="mot273" depart="1092.00" from="550756710#1" to="245553663#1" type="motorcycle"/>
    <trip id="mot274" depart="1096.00" from="4559381" to="-27840840#1" type="motorcycle"/>
    <trip id="mot275" depart="1100.00" from="4559005#0" to="39368524#2" type="motorcycle"/>
    <trip id="mot276" depart="1104.00" from="-28788365#0" to="4902399" type="motorcycle"/>
    <trip id="mot277" depart="1108.00" from="4902447" to="386114209" type="motorcycle"/>
    <trip id="mot278" depart="1112.00" from="-28885040#1" to="8154721#2" type="motorcycle"/>
    <trip id="mot279" depart="1116.00" from="4902374#1" to="162043157#1" type="motorcycle"/>
    <trip id="mot280" depart="1120.00" from="221893217#3" to="221893217#4" type="motorcycle"/>
    <trip id="mot281" depart="1124.00" from="27467656" to="161392080" type="motorcycle"/>
    <trip id="mot282" depart="1128.00" from="4902444" to="490522132" type="motorcycle"/>
    <trip id="mot283" depart="1132.00" from="-28788365#2" to="550860118#2" type="motorcycle"/>
    <trip id="mot284" depart="1136.00" from="327956373#0" to="511815820" type="motorcycle"/>
    <trip id="mot285" depart="1140.00" from="4559074#6" to="249870999" type="motorcycle"/>
    <trip id="mot286" depart="1144.00" from="4734475#0" to="550860119#2" type="motorcycle"/>
    <trip id="mot287" depart="1148.00" from="-4902451#2" to="4902444" type="motorcycle"/>
    <trip id="mot288" depart="1152.00" from="27840838#2" to="27840840#3" type="motorcycle"/>
    <trip id="mot289" depart="1156.00" from="221893257" to="4877450" type="motorcycle"/>
    <trip id="mot290" depart="1160.00" from="-4902451#1" to="518473678" type="motorcycle"/>
    <trip id="mot291" depart="1164.00" from="4902431" to="-28788361#2" type="motorcycle"/>
    <trip id="mot292" depart="1168.00" from="548651990#0" to="-549928646#0" type="motorcycle"/>
    <trip id="mot293" depart="1172.00" from="245553663#0" to="386278913" type="motorcycle"/>
    <trip id="mot294" depart="1176.00" from="161392064#1" to="-221893257" type="motorcycle"/>
    <trip id="mot295" depart="1180.00" from="4902447" to="-4902394#2" type="motorcycle"/>
    <trip id="mot296" depart="1184.00" from="-4877450" to="4902436#0" type="motorcycle"/>
    <trip id="mot297" depart="1188.00" from="-550867442#2" to="549928646#0" type="motorcycle"/>
    <trip id="mot298" depart="1192.00" from="4559074#2" to="143331549#1" type="motorcycle"/>
    <trip id="mot299" depart="1196.00" from="-162043157#0" to="550753287#5" type="motorcycle"/>
    <trip id="mot300" depart="1200.00" from="-27840840#4" to="4774404" type="motorcycle"/>
    <trip id="mot301" depart="1204.00" from="247833369#1" to="4902394#0" type="motorcycle"/>
    <trip id="mot302" depart="1208.00" from="4559005#0" to="438155977#1-AddedOnRampEdge" type="motorcycle"/>
    <trip id="mot303" depart="1212.00" from="247833370#1" to="4902428" type="motorcycle"/>
    <trip id="mot304" depart="1216.00" from="-27840841#1" to="-4902451#0" type="motorcycle"/>
    <trip id="mot305" depart="1220.00" from="4559005#1" to="161392062" type="motorcycle"/>
    <trip id="mot306" depart="1224.00" from="28885040#2" to="27840838#0" type="motorcycle"/>
    <trip id="mot307" depart="1228.00" from="27803780#1" to="247833371#1-AddedOnRampEdge" type="motorcycle"/>
    <trip id="mot308" depart="1232.00" from="4734487" to="161392073#0" type="motorcycle"/>
    <trip id="mot309" depart="1236.00" from="4559074#3" to="-8154721#2" type="motorcycle"/>
    <trip id="mot310" depart="1240.00" from="-4902418#3" to="-28885070#0" type="motorcycle"/>
    <trip id="mot311" depart="1244.00" from="-473691590#1" to="-28885070#0" type="motorcycle"/>
    <trip id="mot312" depart="1248.00" from="27840838#0" to="4902394#3" type="motorcycle"/>
    <trip id="mot313" depart="1252.00" from="-473684642#1" to="-4902441" type="motorcycle"/>
    <trip id="mot314" depart="1256.00" from="247833368" to="4806304#1" type="motorcycle"/>
    <trip id="mot315" depart="1260.00" from="550873590" to="28885040#0" type="motorcycle"/>
    <trip id="mot316" depart="1264.00" from="-511815820" to="-28788370#1" type="motorcycle"/>
    <trip id="mot317" depart="1268.00" from="-473691594" to="-4902453" type="motorcycle"/>
    <trip id="mot318" depart="1272.00" from="-39368524#2" to="-179109642#0" type="motorcycle"/>