<?xml version="1.0" encoding="UTF-8"?>

<!-- generated on Thu Jan  4 15:02:33 2018 by SUMO duarouter Version 0.30.0
<?xml version="1.0" encoding="UTF-8"?>

<configuration xmlns:xsi="http://www.w3.org/2001/XMLSchema-instance" xsi:noNamespaceSchemaLocation="http://sumo.dlr.de/xsd/duarouterConfiguration.xsd">

    <input>
        <net-file value="/media/jefferson/Dados/workspace/GoodsTracker/vanet/sp/sp.net.xml"/>
        <trip-files value="/media/jefferson/Dados/workspace/GoodsTracker/vanet/sp/sp.motorcycle.trips.xml"/>
    </input>

    <output>
        <output-file value="/media/jefferson/Dados/workspace/GoodsTracker/vanet/sp/sp.motorcycle.rou.xml"/>
    </output>

    <processing>
        <ignore-errors value="true"/>
    </processing>

    <time>
        <begin value="0"/>
        <end value="3600.0"/>
    </time>

    <report>
        <no-warnings value="true"/>
        <no-step-log value="true"/>
    </report>

</configuration>
-->

<routes xmlns:xsi="http://www.w3.org/2001/XMLSchema-instance" xsi:noNamespaceSchemaLocation="http://sumo.dlr.de/xsd/routes_file.xsd">
    <vType id="motorcycle" vClass="motorcycle"/>
    <vehicle id="mot0" type="motorcycle" depart="0.00">
        <route edges="340955662 -340955662 -27803780#2 -27803780#1 179109642#1 28788370#0 28788371#0 28788368#0 28788368#1 -27490680 319453543#1 319453543#2 161392073#0 161392072 319453543#4 319453543#5 319453543#6 161389765 161392059#0 550860119#2 -550865716 -4734472 221893217#0 221893217#1 221893217#2 221893217#3 -221893225"/>
    </vehicle>
    <vehicle id="mot1" type="motorcycle" depart="4.00">
        <route edges="-4902451#2 -4902418#4 4902431 -4902428 8154721#1 8154721#2 8154721#3 4902414#1 -4902444"/>
    </vehicle>
    <vehicle id="mot2" type="motorcycle" depart="8.00">
        <route edges="4734475#0 4734475#1 4734475#2 4734475#3 4734475#4 323823408 249871000 247833367 161392066 319447428#0 319447428#1 319447428#2 319447428#3 8148885#0 8148885#1 4559074#0 4559074#1 4559074#2 4559074#3 4559074#4 4559074#5 4559074#6 4559074#7 4559087"/>
    </vehicle>
    <vehicle id="mot3" type="motorcycle" depart="12.00">
        <route edges="549815935 327956372 327956373#0 327956373#1 4902374#0 4902374#1 4902374#2 4902374#3 -549928646#1 -549928646#0 -28788362"/>
    </vehicle>
    <vehicle id="mot4" type="motorcycle" depart="16.00">
        <route edges="179109642#1 28788370#0 28788371#0 28788368#0 28788368#1 -27490680 319453543#1 319453543#2 161392073#0 161392072 319453543#4 319453543#5 319453543#6 161389765 161392059#0 550860119#2 -550865716 -4734472 221893217#0 221893217#1 -511815820 -221893257"/>
    </vehicle>
    <vehicle id="mot11" type="motorcycle" depart="44.00">
        <route edges="-550867442#1 -550867442#0 -229481708#2 -229481708#0 402922224 380438949#0 -39368524#2 -39368524#1"/>
    </vehicle>
    <vehicle id="mot12" type="motorcycle" depart="48.00">
        <route edges="550756710#0 550756710#1 550747490 4902378#0 4902378#1 549917967 161392074"/>
    </vehicle>
    <vehicle id="mot13" type="motorcycle" depart="52.00">
        <route edges="-28788361#0 327764057#0 -4902394#4 -4902394#3 27570527#2 27570527#3 27570527#4 -340955662 -27803780#2 -27803780#1 179109642#1 28788370#0 28788371#0 28788368#0 28788368#1 -28788368#1"/>
    </vehicle>
    <vehicle id="mot17" type="motorcycle" depart="68.00">
        <route edges="161392064#0 161392064#1 161392064#3 161392064#4 161392064#5 319453543#0 319453543#1 319453543#2 319453543#3"/>
    </vehicle>
    <vehicle id="mot18" type="motorcycle" depart="72.00">
        <route edges="4902421 4902418#3 4902418#4 -4902451#1 -4902436#0 -549928646#1 -549928646#0 -28788362 4902394#0 4902394#1 4902394#2 4902394#3 4902394#4 4902394#5 386278913"/>
    </vehicle>
    <vehicle id="mot19" type="motorcycle" depart="76.00">
        <route edges="4902453 549928642#1 549928642#2 549928642#3 549928648#0 4902394#2 4902394#3 4902394#4 -327764057#0 327764058"/>
    </vehicle>
    <vehicle id="mot20" type="motorcycle" depart="80.00">
        <route edges="4559074#1 4559074#2 4559074#3 4559074#4 4559074#5 4559074#6 4559007 4902378#0 4902378#1 549917967 319453543#0 27490680 -27490680"/>
    </vehicle>
    <vehicle id="mot21" type="motorcycle" depart="84.00">
        <route edges="-4902392 4902418#1 4902418#2 4902418#3 4902418#4 -4902451#1 -4902436#0 4902416#0 4902416#2 161392064#3 161392064#4 161392064#5 319453543#0 319453543#1 319453543#2 161392073#0 161392072 319453543#4 319453543#5 319453543#6 319453544 161392067 161392069#1 96097794 15968349"/>
    </vehicle>
    <vehicle id="mot22" type="motorcycle" depart="88.00">
        <route edges="-27840840#3 28788366 27803780#2 340955662 -27570527#4 -27570527#3 -27570527#2 -4902394#2 -4902394#1 -4902394#0 28788362 549928642#0 -4902453"/>
    </vehicle>
    <vehicle id="mot23" type="motorcycle" depart="92.00">
        <route edges="-28788365#1 -4902394#0 161392064#0 161392064#1 161392064#3 161392064#4 161392064#5 549345534 549815935 329013842 4559074#0 4559074#1 4559074#2 4559074#3 4559074#4 4559074#5 4559074#6 4559074#7 4559005#0 4559005#1 4559005#2 -550757841 -550741745 -550745968 -550732345 4877453 143331549#0"/>
    </vehicle>
    <vehicle id="mot24" type="motorcycle" depart="96.00">
        <route edges="327956374 161392064#3 161392064#4 27840836 -27840840#2 -179109642#2 179109642#2"/>
    </vehicle>
    <vehicle id="mot26" type="motorcycle" depart="104.00">
        <route edges="-4902436#1 -4902436#0 4902416#0 4902416#2 161392064#3 161392064#4 161392064#5 549345534 549815935 329013842 4559074#0 4559074#1 4559074#2 4559074#3 4559074#4 4559074#5 4559074#6 4559074#7 4559005#0 550756710#0 550756710#1 550747490"/>
    </vehicle>
    <vehicle id="mot32" type="motorcycle" depart="128.00">
        <route edges="4902440#1 161389761#0 -4902414#3 -4902414#2 -4902414#1 -4902414#0 -8154721#2 -4902399 4902399"/>
    </vehicle>
    <vehicle id="mot33" type="motorcycle" depart="132.00">
        <route edges="-4902394#0 161392064#0 161392064#1 161392064#3 161392064#4 161392064#5 319453543#0 319453543#1 319453543#2 161392073#0 161392072 319453543#4 319453543#5 319453543#6 161389765 161392059#0 550860119#2 -550865716 -4734472 221893217#0 221893217#1 -511815820 -221893285#1 -221893285#0"/>
    </vehicle>
    <vehicle id="mot35" type="motorcycle" depart="140.00">
        <route edges="-4774404 -4774365#0 550873590 550732345 550745968 550741745 550757841 550725735#0 4559084 550753287#0 550753287#1"/>
    </vehicle>
    <vehicle id="mot36" type="motorcycle" depart="144.00">
        <route edges="518473680 4559074#3 4559074#4 4559074#5 4559074#6 4559007 4902378#0 4902474 327956373#1 327956374 161392064#3"/>
    </vehicle>
    <vehicle id="mot37" type="motorcycle" depart="148.00">
        <route edges="344144147#0 473684641#0 473684641#1 4806304#0 4806304#1 4806304#2 327754983 247833369#0 247833369#1 245546865"/>
    </vehicle>
    <vehicle id="mot38" type="motorcycle" depart="152.00">
        <route edges="549939609#0 549939609#1 549939609#2 549939609#3 549928648#0 549928648#1 549928648#2 27570528#2"/>
    </vehicle>
    <vehicle id="mot39" type="motorcycle" depart="156.00">
        <route edges="-4902436#0 4902416#0 4902416#2 161392064#3 161392064#4 161392064#5 319453543#0 319453543#1 319453543#2 161392073#0 161392072 319453543#4 319453543#5 319453543#6 161389765 161392059#0 550860119#2 -550865716 -4734472 221893217#0 -548651990#1 -548651990#0"/>
    </vehicle>
    <vehicle id="mot40" type="motorcycle" depart="160.00">
        <route edges="28788365#2 -27570528#0 161392064#3 161392064#4 161392064#5 549345534 549815935 329013842 4559074#0 4559074#1 4559074#2 4559074#3 4559074#4 4559074#5 4559074#6 4559074#7 4559005#0 4559005#1 4559005#2 -550757841 -550741745 -550745968"/>
    </vehicle>
    <vehicle id="mot42" type="motorcycle" depart="168.00">
        <route edges="161392074 161392081 161392075#1 161392075#2 245234799#6 245234799#0 549915319 327956372 327956373#0 327956373#1 327956374 549928635 549928642#0 549928642#1 549928642#2 -4902441"/>
    </vehicle>
    <vehicle id="mot43" type="motorcycle" depart="172.00">
        <route edges="96097829#2 4523238 327754983 247833369#0 247833369#1 319447428#0 319447428#1 319447428#2 319447428#3 401773368 327956372 327956373#0 327956373#1 327956374 27570528#0 -28788365#2 28788365#2"/>
    </vehicle>
    <vehicle id="mot44" type="motorcycle" depart="176.00">
        <route edges="-27840841#1 -27840841#0 340955662 -27570527#4 -27570527#3 -27570527#2 -27570527#1 -27570527#0"/>
    </vehicle>
    <vehicle id="mot48" type="motorcycle" depart="192.00">
        <route edges="96097829#1 96097829#2 4523238 327754983 247833369#0 247833369#1 319447428#0 319447428#1 319447428#2 319447428#3 401773368 327956372 327956373#0 327956373#1 327956374 27570528#0 27570528#1 27570528#2 -27570527#3 28885040#3 28885040#4"/>
    </vehicle>
    <vehicle id="mot50" type="motorcycle" depart="200.00">
        <route edges="-162043157#0 -162043156 39368522#5 -229481708#0 402922224 380438949#0 380438949#1 319447428#1 319447428#2 319447428#3 8148885#0 8148885#1 4559074#0 4559074#1 4559074#2 4559074#3 4559074#4 4559074#5 4559074#6 4559074#7 4559005#0 4559005#1 4559005#2 -550757841 -550741745 -550745968 -550732345 -550873590 4774365#0 4774365#1"/>
    </vehicle>
    <vehicle id="mot51" type="motorcycle" depart="204.00">
        <route edges="401773368 327956372 327956373#0 327956373#1 327956374 161392064#3 161392064#4 27840836 -27840840#2 -179109642#2 -179109642#1 -179109642#0 28885055#1"/>
    </vehicle>
    <vehicle id="mot53" type="motorcycle" depart="212.00">
        <route edges="-28788370#1 28788371#0 28788368#0 28788368#1 -27490680 319453543#1 319453543#2 161392073#0 161392072 319453543#4 319453543#5 319453543#6 161389765 161392059#0 550860118#0 550860118#1 550860118#2 550860118#3 249697090#0 249697090#1 249697090#2"/>
    </vehicle>
    <vehicle id="mot54" type="motorcycle" depart="216.00">
        <route edges="245234799#3 245234799#4 245234799#5 245234799#6 161392080 329013842 4559074#0 4559074#1 4559074#2 4559074#3 4559074#4 4559074#5 4559074#6 4559074#7 4559005#0 550756710#0"/>
    </vehicle>
    <vehicle id="mot55" type="motorcycle" depart="220.00">
        <route edges="518473679 -518473675 4559074#4 4559074#5 4559074#6 4559074#7 4559005#0 4559005#1 4559005#2 -550757841"/>
    </vehicle>
    <vehicle id="mot57" type="motorcycle" depart="228.00">
        <route edges="549928648#3 -340955662 -27803780#2 -28788366 -27840836 161392064#5 549345534 549815935"/>
    </vehicle>
    <vehicle id="mot58" type="motorcycle" depart="232.00">
        <route edges="-518473677 4559074#6 4559074#7 4559087 4559118 550753286 418990606"/>
    </vehicle>
    <vehicle id="mot60" type="motorcycle" depart="240.00">
        <route edges="473684643 -473684642#0 327754983 247833369#0 247833369#1 319447428#0 319447428#1 319447428#2 319447428#3 401773368 327956372 327956373#0 327956373#1 327956374 27570528#0 27570528#1 549928648#3 28885070#2"/>
    </vehicle>
    <vehicle id="mot61" type="motorcycle" depart="244.00">
        <route edges="4806304#2 327754983 247833369#0 247833369#1 319447428#0 319447428#1 319447428#2 319447428#3 401773368 327956372 327956373#0 327956373#1 327956374 27570528#0 27570528#1 27570528#2 -27570527#3 28885040#3 28885040#4"/>
    </vehicle>
    <vehicle id="mot63" type="motorcycle" depart="252.00">
        <route edges="-179109642#0 179109642#0 179109642#1 179109642#2 27840840#2 -27840836 161392064#5 549345534 549815935 329013842 4559074#0 4559074#1 4559074#2 4559074#3 4559074#4 4559074#5 4559074#6 4559074#7 4559005#0 4559005#1 386223029 550735550"/>
    </vehicle>
    <vehicle id="mot64" type="motorcycle" depart="256.00">
        <route edges="518473680 4559074#3 4559074#4 4559074#5 4559074#6 4559007 4902378#0 4902378#1 549917967 319453543#0 319453543#1 319453543#2 161392073#0 161392072 319453543#4 319453543#5 319453543#6 161389765 161392059#0 550860119#2 -550865716 -4734472 221893217#0 221893217#1 -511815820 511815820"/>
    </vehicle>
    <vehicle id="mot65" type="motorcycle" depart="260.00">
        <route edges="-518474788 -162043156 39368522#5 -229481708#0 402922224 380438949#0 380438949#1 319447428#1 319447428#2 319447428#3 401773368 327956372 327956373#0 327956373#1 327956374 27570528#0 27570528#1 -27570528#1"/>
    </vehicle>
    <vehicle id="mot66" type="motorcycle" depart="264.00">
        <route edges="518473680 4559074#3 4559074#4 4559074#5 4559074#6 4559074#7 4559087 4559118 550753286 550753287#0 550753287#1 550753287#2 550753287#3 550753287#4"/>
    </vehicle>
    <vehicle id="mot67" type="motorcycle" depart="268.00">
        <route edges="-27840840#4 27840840#4"/>
    </vehicle>
    <vehicle id="mot68" type="motorcycle" depart="272.00">
        <route edges="-27840836 161392064#5 549345534 549815935 327956372 327956373#0 327956373#1 4902374#0 4902374#1 4902374#2 4902374#3 4902436#0 4902451#1 -4902418#4 -4902418#3 -4902418#2 -4902418#1 4902392"/>
    </vehicle>
    <vehicle id="mot69" type="motorcycle" depart="276.00">
        <route edges="473684643 -473684642#0 327754983 247833369#0 247833369#1 319447428#0 319447428#1 319447428#2 319447428#3 401773368 327956372 327956373#0 327956373#1 327956374 161392064#3 161392064#4 27840836 28788366 27803780#2 -340955664"/>
    </vehicle>
    <vehicle id="mot70" type="motorcycle" depart="280.00">
        <route edges="245553663#5 245553663#6 245553663#7 245553663#8 245553663#9 418990606 4902378#0 4902378#1 549917967 319453543#0 319453543#1"/>
    </vehicle>
    <vehicle id="mot71" type="motorcycle" depart="284.00">
        <route edges="-4902436#0 4902416#0 4902416#2 161392064#3 161392064#4 161392064#5 319453543#0 319453543#1 161392075#2 245234799#6 245234799#0 549915319"/>
    </vehicle>
    <vehicle id="mot72" type="motorcycle" depart="288.00">
        <route edges="179109642#1 -179109642#1 27803780#1 27803780#2 340955662 -27570527#4 -27570527#3 -27570527#2 -4902394#2 -4902394#1 -4902394#0 28788362 549928646#0 161392062 4902374#3 4902436#0 4902436#1 -4902428"/>
    </vehicle>
    <vehicle id="mot74" type="motorcycle" depart="296.00">
        <route edges="-473691594 -27840841#0 340955662 -27570527#4 -27570527#3 -27570527#2 -4902394#2 -4902394#1 -4902394#0 161392064#0"/>
    </vehicle>
    <vehicle id="mot77" type="motorcycle" depart="308.00">
        <route edges="-28885040#3 -27570527#2 -4902394#2 -4902394#1 -4902394#0 28788362 549928646#0 161392062 4902374#3 4902436#0 -4902451#0 4902447 -4902447"/>
    </vehicle>
    <vehicle id="mot78" type="motorcycle" depart="312.00">
        <route edges="-550867442#0 -229481708#2 -229481708#0 402922224 380438949#0 380438949#1 319447428#1 319447428#2 319447428#3 8148885#0 8148885#1 4559074#0 4559074#1 4559074#2 4559074#3 4559074#4 4559074#5 4559074#6 4559007 4902378#0 4902378#1 549917967 549345534 549815935 329013842"/>
    </vehicle>
    <vehicle id="mot79" type="motorcycle" depart="316.00">
        <route edges="-4902394#1 -4902394#0 28788362 549928642#0 549928642#1 549928642#2 -4902441"/>
    </vehicle>
    <vehicle id="mot82" type="motorcycle" depart="328.00">
        <route edges="4902453 549928642#1 549928642#2 549928642#3 549928648#0 4902394#2 27570527#2 27570527#3 27570527#4 -340955662 -27803780#2 -27803780#1 -27803780#0 -27840838#2 -27840838#1"/>
    </vehicle>
    <vehicle id="mot83" type="motorcycle" depart="332.00">
        <route edges="-4902394#5 -4902394#4 -4902394#3 -4902394#2 -4902394#1 -4902394#0 161392064#0 161392064#1 161392064#3 161392064#4 161392064#5 549345534 549815935 329013842 4559074#0 4559074#1 4559074#2 4559074#3 4559074#4"/>
    </vehicle>
    <vehicle id="mot86" type="motorcycle" depart="344.00">
        <route edges="245553663#3 4902433 4902416#0"/>
    </vehicle>
    <vehicle id="mot87" type="motorcycle" depart="348.00">
        <route edges="4902394#4 -4902394#4"/>
    </vehicle>
    <vehicle id="mot88" type="motorcycle" depart="352.00">
        <route edges="-28788361#2 -28885040#3 27570527#3 27570527#4 -340955662 -27803780#2 -27803780#1 179109642#1 28788370#0 28788371#0 28788368#0 28788368#1 -27490680 319453543#1 319453543#2 161392073#0 161392072 319453543#4 319453543#5 319453543#6 161389765 161392059#0 550860118#0 550860118#1 550860118#2 550860118#3 249697090#0 249697090#1 249697090#2"/>
    </vehicle>
    <vehicle id="mot89" type="motorcycle" depart="356.00">
        <route edges="179109642#2 -179109642#2 -179109642#1 -27803780#0 27803780#0"/>
    </vehicle>
    <vehicle id="mot90" type="motorcycle" depart="360.00">
        <route edges="462566123 550873590 550732345 550745968 550741745 550757841 550725735#0 550756710#0 550756710#1 550747490 4902378#0 4902378#1 549917967 549345534 549815935 329013842 4559074#0 4559074#1 4559074#2 4559074#3 4559074#4 4559074#5 4559074#6 4559074#7"/>
    </vehicle>
    <vehicle id="mot91" type="motorcycle" depart="364.00">
        <route edges="8154721#2 -8154721#2 -8154721#1 4902428 -4902436#1 -4902436#0 4902416#0 4902416#2 161392064#3 161392064#4 27840836 -27840840#2 -27840840#1 -28788371#1 -28788371#0 28788370#1 -28788370#1"/>
    </vehicle>
    <vehicle id="mot92" type="motorcycle" depart="368.00">
        <route edges="161392075#1"/>
    </vehicle>
    <vehicle id="mot93" type="motorcycle" depart="372.00">
        <route edges="4902453 549928642#1 549928642#2 549928642#3 327764059#0 28788365#0 -4902394#0 28788362 549928646#0 -549928646#0"/>
    </vehicle>
    <vehicle id="mot94" type="motorcycle" depart="376.00">
        <route edges="-473684642#1 -473684642#0 327754983 247833369#0 247833369#1 319447428#0 319447428#1 319447428#2 319447428#3 401773368 327956372 327956373#0 327956373#1 327956374 27570528#0 -28788365#2 -28788365#1 4902394#1 4902394#2 -27570527#1 27570527#1"/>
    </vehicle>
    <vehicle id="mot95" type="motorcycle" depart="380.00">
        <route edges="179109642#1 179109642#2 27840840#2 -27840836 161392064#5 549345534 549815935 329013842 4559074#0 4559074#1 4559074#2 4559074#3 4559074#4 4559074#5 4559074#6 4559074#7 4559005#0 4559005#1 4559005#2 -550757841 -550741745 -550745968 -550732345 4877453 143331549#0"/>
    </vehicle>
    <vehicle id="mot96" type="motorcycle" depart="384.00">
        <route edges="-4902414#3 4902414#3 161389761#1 245553663#8 245553663#9 550749977 4559005#1 4559005#2 -550757841 -550741745 -550745968 -550732345 -550873590 4774365#0 -4774365#0 550873590 550732345 550745968 550741745 550757841 550725735#0"/>
    </vehicle>
    <vehicle id="mot98" type="motorcycle" depart="392.00">
        <route edges="28788360#2 549928648#0 4902394#2 27570527#2 -27570527#2"/>
    </vehicle>
    <vehicle id="mot103" type="motorcycle" depart="412.00">
        <route edges="161392075#0 161392075#1 161392075#2 245234799#6 245234799#0 549915319 327956372 327956373#0 327956373#1 327956374 27570528#0 27570528#1 27570528#2 -27570528#2"/>
    </vehicle>
    <vehicle id="mot104" type="motorcycle" depart="416.00">
        <route edges="161392064#0 28885040#0 -28788365#1 -4902394#0 28788362 549928646#0 161392062 4902374#3 4902436#0 4902436#1 -4902428 8154721#1 8154721#2"/>
    </vehicle>
    <vehicle id="mot105" type="motorcycle" depart="420.00">
        <route edges="-4902436#0 4902416#0"/>
    </vehicle>
    <vehicle id="mot106" type="motorcycle" depart="424.00">
        <route edges="245234799#4 245234799#5 245234799#6 161392075#0 161392075#1 319453543#2 161392073#0 161392072 319453543#4 319453543#5 319453543#6 161389765 247833371#0"/>
    </vehicle>
    <vehicle id="mot108" type="motorcycle" depart="432.00">
        <route edges="28788362 -28788362 161392064#0 161392064#1 161392064#3 161392064#4 161392064#5 549345534 549815935 329013842 4559074#0 4559074#1 4559074#2 4559074#3 4559074#4 4559074#5 4559074#6 4559074#7 4559005#0 4559005#1 4559005#2 -550757841 -550741745 -550745968 -550732345 -550873590 4774365#0 4774365#1"/>
    </vehicle>
    <vehicle id="mot111" type="motorcycle" depart="444.00">
        <route edges="27840840#2 -27840836 161392064#5 549345534 549815935 327956372 327956373#0 327956373#1 4902374#0"/>
    </vehicle>
    <vehicle id="mot112" type="motorcycle" depart="448.00">
        <route edges="-27570528#3 27570527#4 -340955662 -27803780#2 -28788366 -27840836 161392064#5 549345534 549815935 327956372 327956373#0 327956373#1"/>
    </vehicle>
    <vehicle id="mot115" type="motorcycle" depart="460.00">
        <route edges="-27840840#3 28788366 27803780#2 340955662 -27570527#4 -27570527#3 -27570527#2 -4902394#2 -4902394#1"/>
    </vehicle>
    <vehicle id="mot116" type="motorcycle" depart="464.00">
        <route edges="319447428#0 319447428#1 319447428#2 319447428#3 8148885#0 8148885#1 4559074#0 4559074#1 4559074#2 4559074#3 4559074#4 4559074#5 4559074#6 4559074#7 4559005#0 4559084"/>
    </vehicle>
    <vehicle id="mot117" type="motorcycle" depart="468.00">
        <route edges="-4902394#4 -4902394#3 27570527#2 27570527#3 27570527#4 -28885070#1"/>
    </vehicle>
    <vehicle id="mot118" type="motorcycle" depart="472.00">
        <route edges="549345534 549815935 329013842 4559074#0 4559074#1 4559074#2 4559074#3 4559074#4 4559074#5 4559074#6 4559007 4902378#0 4902378#1 549917967 319453543#0 319453543#1 319453543#2 161392073#0 161392072 319453543#4 319453543#5 319453543#6 161389765 161392059#0 550860119#2 -550865716 -4734472 221893217#0 -548651990#1 -548651990#0"/>
    </vehicle>
    <vehicle id="mot119" type="motorcycle" depart="476.00">
        <route edges="319447428#0 319447428#1 319447428#2 319447428#3 401773368 327956372 327956373#0 327956373#1 327956374 27570528#0 -28788365#2 -28788365#1 4902394#1 4902394#2 4902394#3 4902394#4 4902394#5 386278913"/>
    </vehicle>
    <vehicle id="mot121" type="motorcycle" depart="484.00">
        <route edges="27570528#1 -27570528#1 -27570528#0 161392064#3 161392064#4 161392064#5 549345534 549815935 329013842 4559074#0 4559074#1 4559074#2 4559074#3 4559074#4 4559074#5 4559074#6 4559074#7 4559005#0 4559005#1 4559005#2 -550757841 -550741745 -550745968 -550732345 -550873590 4774365#0 -4774365#0 550873590 550732345 550745968"/>
    </vehicle>
    <vehicle id="mot122" type="motorcycle" depart="488.00">
        <route edges="-4774365#1 4774365#1"/>
    </vehicle>
    <vehicle id="mot124" type="motorcycle" depart="496.00">
        <route edges="39368522#4 39368522#5 -229481708#0 402922224 380438949#0 380438949#1 319447428#1 319447428#2 319447428#3 401773368 327956372 327956373#0 327956373#1 4902374#0 4902440#0 4902440#1 161389761#0 161389761#1"/>
    </vehicle>
    <vehicle id="mot125" type="motorcycle" depart="500.00">
        <route edges="-549928646#1 161392062 4902374#3"/>
    </vehicle>
    <vehicle id="mot126" type="motorcycle" depart="504.00">
        <route edges="-27840838#1 27840838#1 27840838#2 27803780#0 27803780#1 27803780#2 340955662 28885070#2 27570528#2"/>
    </vehicle>
    <vehicle id="mot128" type="motorcycle" depart="512.00">
        <route edges="-27840838#2 27840838#2 27803780#0 27803780#1 27803780#2 340955662 -27570527#4 -27570527#3 -27570527#2 -4902394#2 -4902394#1 -4902394#0 28788362 549928646#0 161392062 4902374#3 -4902433"/>
    </vehicle>
    <vehicle id="mot129" type="motorcycle" depart="516.00">
        <route edges="-4902436#0 4902436#0 4902436#1 -4902428 8154721#1 8154721#2 8154721#3 4902414#1 4902414#2 4902414#3 161389761#1 245553663#8 245553663#9 550749977 4559005#1 4559005#2 -550757841 -550741745 -550745968 -550732345 -550873590 4774365#0 -4774365#0 550873590 550732345 550745968 550741745"/>
    </vehicle>
    <vehicle id="mot130" type="motorcycle" depart="520.00">
        <route edges="518473680 4559074#3 4559074#4 4559074#5 4559074#6 4559007 4902378#0 4902474 327956373#1 327956374 549928635 549928642#0 549928642#1 549928642#2"/>
    </vehicle>
    <vehicle id="mot134" type="motorcycle" depart="536.00">
        <route edges="344144147#0 473684641#0 473684641#1 550712035 -550712033 -550867442#1 -550867442#0 -229481708#2 -39368522#5 -39368522#4 -39368522#2 -39368522#1 -162043157#1"/>
    </vehicle>
    <vehicle id="mot135" type="motorcycle" depart="540.00">
        <route edges="4902414#3 161389761#1"/>
    </vehicle>
    <vehicle id="mot136" type="motorcycle" depart="544.00">
        <route edges="39368522#0 39368522#1 39368522#2 -518474575 -473691590#0 39368524#2 380438949#1 319447428#1 319447428#2 319447428#3 8148885#0 8148885#1 4559074#0 4559074#1 4559074#2 4559074#3 4559074#4 4559074#5 4559074#6 4559074#7 4559087 4559118 550753286"/>
    </vehicle>
    <vehicle id="mot137" type="motorcycle" depart="548.00">
        <route edges="-327764057#0 327764057#0 -4902394#4 -4902394#3 27570527#2 27570527#3 27570527#4 -28885070#1 -28885070#0"/>
    </vehicle>
    <vehicle id="mot138" type="motorcycle" depart="552.00">
        <route edges="-28788368#0 28788368#0 28788368#1 -27490680 319453543#1 319453543#2 319453543#3"/>
    </vehicle>
    <vehicle id="mot140" type="motorcycle" depart="560.00">
        <route edges="4559087 4559118 550753286 418990606 4902378#0 4902474 327956373#1 4902374#0 4902374#1 4902374#2 4902374#3 4902436#0 4902451#1 -4902418#4 -4902418#3 -4902418#2 -4902418#1"/>
    </vehicle>
    <vehicle id="mot141" type="motorcycle" depart="564.00">
        <route edges="327956373#1 327956374 161392064#3 161392064#4 161392064#5 549345534 549815935 329013842 4559074#0 4559074#1 4559074#2 4559074#3 4559074#4 4559074#5 4559074#6 4559074#7 4559005#0 4559005#1 4559005#2 -550757841"/>
    </vehicle>
    <vehicle id="mot142" type="motorcycle" depart="568.00">
        <route edges="247833369#1 319447428#0 319447428#1 550674386"/>
    </vehicle>
    <vehicle id="mot143" type="motorcycle" depart="572.00">
        <route edges="4902440#3 245553663#9 418990606 4902378#0 4902378#1 549917967 319453543#0 27490680 -28788368#1 -28788368#0 -28788371#0 -28788370#0 -179109642#1 27803780#1 -28788366"/>
    </vehicle>
    <vehicle id="mot144" type="motorcycle" depart="576.00">
        <route edges="179109642#2 27840840#2 -27840836 161392064#5 549345534 549815935 327956372 327956373#0 327956373#1 4902374#0 4902374#1 -8154723"/>
    </vehicle>
    <vehicle id="mot146" type="motorcycle" depart="584.00">
        <route edges="329013842 4559074#0 4559074#1 4559074#2 4559074#3 4559074#4 4559074#5 4559074#6 4559074#7 4559005#0 4559005#1 4559005#2 -550757841 -550741745 -550745968"/>
    </vehicle>
    <vehicle id="mot147" type="motorcycle" depart="588.00">
        <route edges="4734475#1 4734475#2 4734475#3 4734475#4 323823408 249871000 247833367 161392066 161392078 245234799#3 245234799#4 245234799#5 245234799#6 161392075#0 161392075#1 319453543#2 319453543#3"/>
    </vehicle>
    <vehicle id="mot149" type="motorcycle" depart="596.00">
        <route edges="-27840840#0 -28788368#0 -28788371#0 -28788370#0 -179109642#1 27803780#1 27803780#2 340955662 -27570527#4 -27570527#3 -27570527#2 -4902394#2 -4902394#1 -4902394#0 28788362 549928646#0"/>
    </vehicle>
    <vehicle id="mot151" type="motorcycle" depart="604.00">
        <route edges="4902431 -4902436#1 -4902436#0 4902416#0 4902416#2 161392064#3 161392064#4 161392064#5 549345534 549815935 327956372 327956373#0"/>
    </vehicle>
    <vehicle id="mot152" type="motorcycle" depart="608.00">
        <route edges="-341224416 -28885055#0 27803780#2 -340955664"/>
    </vehicle>
    <vehicle id="mot155" type="motorcycle" depart="620.00">
        <route edges="549928642#0 549928642#1 -4902426"/>
    </vehicle>
    <vehicle id="mot156" type="motorcycle" depart="624.00">
        <route edges="-4902414#2 -4902414#1 -4902414#0 -8154721#2 -8154721#1 4902428 -4902436#1 -4902436#0 4902416#0 4902416#2 161392064#3 161392064#4 27840836 -27840840#2 -27840840#1 -28788371#1"/>
    </vehicle>
    <vehicle id="mot157" type="motorcycle" depart="628.00">
        <route edges="4806304#2 327754983 247833369#0 247833369#1 319447428#0 319447428#1 319447428#2 319447428#3 401773368 327956372 327956373#0 327956373#1 4902374#0 4902374#1 4902374#2 4902374#3 -549928646#1 549928646#1"/>
    </vehicle>
    <vehicle id="mot158" type="motorcycle" depart="632.00">
        <route edges="161392078 245234799#3 245234799#4 245234799#5 245234799#6 245234799#0 549915319 327956372 327956373#0 327956373#1 327956374 27570528#0 -28788365#2 -28788365#1 4902394#1 4902394#2 4902394#3 4902394#4 4902394#5 386278913"/>
    </vehicle>
    <vehicle id="mot161" type="motorcycle" depart="644.00">
        <route edges="4902399 -8154721#1 4902428 -4902436#1 -4902436#0 -549928646#1 -549928646#0 549928642#0 549928642#1 549928642#2 549928642#3"/>
    </vehicle>
    <vehicle id="mot163" type="motorcycle" depart="652.00">
        <route edges="-550741745 -550745968 -550732345 -550873590 4774365#0 -4774365#0 550873590 550732345 550745968 550741745 550757841 550725735#0 4559005#1 386223029 550735550"/>
    </vehicle>
    <vehicle id="mot166" type="motorcycle" depart="664.00">
        <route edges="4902374#1 4902374#2 4902374#3 -549928646#1 -549928646#0 -28788362 4902394#0 4902394#1 4902394#2 4902394#3 28788361#1 -28885040#3"/>
    </vehicle>
    <vehicle id="mot167" type="motorcycle" depart="668.00">
        <route edges="518473673 -550732345 -550873590 4774365#0 -4774365#0 550873590 550732345 550745968 550741745 550757841 550725735#0 550756710#0 550756710#1 550747490 4902378#0 4902378#1 549917967 549345534 549815935 329013842 4559074#0 4559074#1 4559074#2 4559074#3 4559074#4 518473679"/>
    </vehicle>
    <vehicle id="mot169" type="motorcycle" depart="676.00">
        <route edges="245546865 380438949#0 -39368524#2 473691590#0 518474575 39368522#4 39368522#5 229481708#2 550867442#0 550867442#1 550712033 550712036#0 550712034 4806304#2 327754983 4734476#0 4734476#1 319453545#0 161389756#0 161389756#1 550860119#0 550860119#2 -550865716 550865716 161389764"/>
    </vehicle>
    <vehicle id="mot170" type="motorcycle" depart="680.00">
        <route edges="4902378#1 549917967 549345534 549815935 327956372 327956373#0 327956373#1 4902374#0 4902374#1 4902374#2 4902374#3 4902436#0 4902451#1 -4902451#1"/>
    </vehicle>
    <vehicle id="mot175" type="motorcycle" depart="700.00">