<?xml version="1.0" encoding="UTF-8"?>

<!-- generated on Mon Jan 15 22:06:36 2018 by SUMO duarouter Version 0.30.0
<?xml version="1.0" encoding="UTF-8"?>

<configuration xmlns:xsi="http://www.w3.org/2001/XMLSchema-instance" xsi:noNamespaceSchemaLocation="http://sumo.dlr.de/xsd/duarouterConfiguration.xsd">

    <input>
        <net-file value="/media/jefferson/Dados/workspace/gtracker/vanet/sp/sp.net.xml"/>
        <trip-files value="/media/jefferson/Dados/workspace/gtracker/vanet/sp/sp.motorcycle.trips.xml"/>
    </input>

    <output>
        <output-file value="/media/jefferson/Dados/workspace/gtracker/vanet/sp/sp.motorcycle.rou.xml"/>
    </output>

    <processing>
        <ignore-errors value="true"/>
    </processing>

    <time>
        <begin value="0"/>
        <end value="3600.0"/>
    </time>

    <report>
        <no-warnings value="true"/>
        <no-step-log value="true"/>
    </report>

</configuration>
-->

<routes xmlns:xsi="http://www.w3.org/2001/XMLSchema-instance" xsi:noNamespaceSchemaLocation="http://sumo.dlr.de/xsd/routes_file.xsd">
    <vType id="motorcycle" vClass="motorcycle"/>
    <vehicle id="mot0" type="motorcycle" depart="0.00">
        <route edges="27570527#3 -27570527#3 -4902394#2 -4902394#1 -4902394#0 28788362 549928646#0 161392062 4902374#3 -4902433#10 -4902433#9 -4902433#8 -4902433#7 -4902433#6 -4902433#5 -4902433#4 -4902433#3 -4902433#2 -4902433#1 -4902433#0 143331532#1 -506329457#2 -473679813 -351479491 157483940#0 157483940#1 157483940#2 157483940#3 386114778#1 466974166#1 386114783 -157483947#2 -157483947#1 386114784 -143331551#6 -143331551#5"/>
    </vehicle>
    <vehicle id="mot1" type="motorcycle" depart="4.00">
        <route edges="-409581860#10 -409581860#9 -409581860#7 -409581860#6 -409581860#5 -409581860#4 -409581860#3 -409581860#2 -409581860#1 -409581860#0 -409581861#1 -409581861#0 27570951#1 27570951#2 519339286#1 519339286#2 443606341#1 443606341#2 501498995 443606343 543344250#0 543344250#1 328584567#1 96097829#0 96097829#1 96097829#2 4523238 327754983 247833369#0 247833369#1 319447428#0 319447428#1 319447428#2 319447428#3 401773368 327956372 327956373#0 327956373#1 4902374#0 4902374#1 4902374#2 4902374#3 -4902433#10 -4902433#9 -4902433#8 -4902433#7 -4902433#6 -4902433#5 -4902433#4 -4902433#3 -4902433#2 -4902433#1 -4902433#0 143331532#1 -506329457#2 -473679813 -351479491 157483940#0 157483940#1 -157483942#8 -157483942#7 -157483942#6 27218103#0 27218103#1 -466974177#1 -466974177#0 -27218101 4727809#9 4727809#10 4727809#11 386113076#0 386113076#1 386113076#2 -386113079"/>
    </vehicle>
    <vehicle id="mot3" type="motorcycle" depart="12.00">
        <route edges="475370302 -245234796#2 -245234796#1 -245234796#0 229479577#0 229479577#1 250338817#3 250338817#4 250338817#5 250338817#6 250338817#7 250338817#8 201637618#0 201637618#1 201637617 442026558 331379640 442026556#0 442026556#1 331379641 8430747 27951245 -229479573#3"/>
    </vehicle>
    <vehicle id="mot5" type="motorcycle" depart="20.00">
        <route edges="-345332044 143331551#6 -386114784 157483947#1 157483947#2 -386114783 -466974166#1 -386114778#1 -157483940#3 -157483940#2 -157483940#1 -157483940#0 351479491 473679813 506329457#2 -143331532#1 4902433#0 4902433#1 4902433#2 4902433#3 4902433#4 4902433#5 4902433#6 4902433#7 4902433#8 4902433#9 4902433#10 4902416#0 4902416#2 161392064#3 161392064#4 161392064#5 319453543#0 319453543#1 319453543#2 161392073#0 161392072 319453543#4 319453543#5 319453543#6 319453544 161392067 161392069#1 96097794 15968349 480295115#0 480295115#1 245234770#0 245234770#1 245234770#2 245234770#3 245234770#4 245234770#5 245234770#6 245234770#7 245234770#8 245234770#9 245234770#10 245234770#11 245234770#12 27571486 27571484#3 27571484#4 27571484#5 27571484#6 -248521868#2 -96494363 -245234796#1 245234796#1"/>
    </vehicle>
    <vehicle id="mot6" type="motorcycle" depart="24.00">
        <route edges="-157141911 157422557#1 4727898#2 4727898#4 4727809#4 4727809#5 4727809#6 4727809#7 4727809#8 27218101 466974177#0 466974177#1 -27218103#1 -27218103#0 157483942#6 157483942#7 157483942#8 -157483940#1 -157483940#0 351479491 473679813 506329457#2 -143331532#1 4902433#0 4902433#1 4902433#2 4902433#3 4902433#4 4902433#5 4902433#6 4902433#7 4902433#8 4902433#9 4902433#10 -549928646#1 -549928646#0 549928642#0 549928642#1 549928642#2 549928642#3 549928651 245234861 27570526#0 27570526#1 27570526#3 327764057#0 327764057#1 327764057#2 327764055 473691608#1 473691608#2 473691604#0 473691604#1 473691601#0 28788382#3 27840841#2 27840841#3 27840841#4 27467658#0 -28885076#2 -28885076#1"/>
    </vehicle>
    <vehicle id="mot7" type="motorcycle" depart="28.00">
        <route edges="27571474 543344250#0 543344250#1 328584567#1 96097829#0 96097829#1 96097829#2 4523238 327754983 4734476#0 4734476#1 319453545#0 319453545#1 249697090#0 249697090#1 249697090#2 249697090#3 249697090#4 -249697087#2 249697140"/>
    </vehicle>
    <vehicle id="mot8" type="motorcycle" depart="32.00">
        <route edges="-351479493#0 -157483941#0 473679810#0 473679810#1 473679810#2 473679810#3 351479491 473679813 506329457#2 -143331532#1 4902433#0 4902433#1 4902433#2 4902433#3 4902433#4 4902433#5 4902433#6 4902433#7 4902433#8 4902433#9 4902433#10 4902416#0 4902416#2 161392064#3 161392064#4 161392064#5 319453543#0 319453543#1 319453543#2 161392073#0 161392072 319453543#4 319453543#5 319453543#6 319453544 161392067 161392069#1 96097794 15968349 480295115#0 480295115#1 245234770#0 245234770#1 245234770#2 245234770#3 245234770#4 245234770#5 245234770#6 245234770#7 245234770#8 245234770#9 245234770#10 245234770#11 245234770#12 27571486 27571484#3 27571484#4 27571484#5 27571484#6 -248521868#2 -248521868#1 -248521868#0 -409581860#13 -409581860#12 -409581860#11 -409581860#10 -409581860#9 -409581860#7 -409581860#6 27571858 27572158 -27572154#1 53172877#0 -27572162#3 -27572162#2 -27572162#1 -27572162#0 -47221485#0 -312299088#2 -312299088#1 -312299088#0 -442027004#3 -442027004#2 27558781"/>
    </vehicle>
    <vehicle id="mot9" type="motorcycle" depart="36.00">
        <route edges="-4902371#0 4902371#0 4902371#1 4902371#2 4902433#3 4902433#4 4902433#5 4902433#6 4902433#7 4902433#8 4902433#9 4902433#10 4902416#0 4902416#2 161392064#3 161392064#4 161392064#5 319453543#0 319453543#1 319453543#2 161392073#0 161392072 319453543#4 319453543#5 319453543#6 319453544 161392067 161392069#1 96097794 15968349 480295115#0 480295115#1 245234770#0 245234770#1 245234770#2 245234770#3 245234770#4 245234770#5 245234770#6 245234770#7 245234770#8 245234770#9 245234770#10 245234770#11 245234770#12 248521874#0 248521874#1 248521874#2 -27571849#5 -27571849#4"/>
    </vehicle>
    <vehicle id="mot10" type="motorcycle" depart="40.00">
        <route edges="511817673 4734475#7 323823408 249871000 247833367 161392066 319447428#0 319447428#1 319447428#2 319447428#3 401773368 327956372 327956373#0 327956373#1 327956374 549928635 549928642#0 549928642#1 549928642#2 -4902441#1"/>
    </vehicle>
    <vehicle id="mot11" type="motorcycle" depart="44.00">
        <route edges="466974177#2 168645107#1 168645107#2 168645107#3 168645107#4 27218104#0 27218104#1 27218104#2 27218104#3 27218104#4 466991750#0 466991750#1 27218105 473679813 506329457#2 -143331532#1 4902433#0 4902433#1 4902433#2 4902433#3 4902433#4 4902433#5 4902433#6 4902433#7 4902433#8 4902433#9 4902433#10 4902416#0 4902416#2 161392064#3 161392064#4 161392064#5 319453543#0 319453543#1 319453543#2 161392073#0 161392072 319453543#4 319453543#5 319453543#6 319453544 161392067 161392069#1 96097794 15968349 480295115#0 480295115#1 245234770#0 245234770#1 245234770#2 245234770#3 245234770#4 245234770#5 245234770#6 245234770#7 245234770#8 245234770#9 245234770#10 245234770#11 245234770#12 27571486 27571484#3 27571484#4 27571484#5 27571484#6 -248521868#2 -248521868#1 -248521868#0 -409581860#13 -409581860#12 -409581860#11 -409581860#10 -409581860#9 -409581860#7 -409581860#6 -409581860#5 -409581860#4 -409581860#3 -409581860#2 -409581860#1 -409581860#0 -409581861#1 -409581861#0 27570958#6"/>
    </vehicle>
    <vehicle id="mot12" type="motorcycle" depart="48.00">
        <route edges="409581860#4 -409581860#4 -409581860#3 -409581860#2 -409581860#1 -409581860#0 -409581861#1 -409581861#0 27570951#1 27570951#2 519339286#1 519339286#2 443606341#1 443606341#2 501498995 443606343 543344250#0 543344250#1 328584567#1 96097829#0 96097829#1 96097829#2 4523238 327754983 247833369#0 247833369#1 319447428#0 319447428#1 319447428#2 319447428#3 401773368 327956372 327956373#0 327956373#1 4902374#0 4902374#1 4902374#2 4902374#3 -4902433#10 -4902433#9 -4902433#8 -4902433#7 -4902433#6 -4902433#5 -4902433#4 -4902433#3 -4902433#2 -4902433#1 -4902433#0 143331532#1 -506329457#2 -473679813 -27218105 -168645104#1 -168645103#3 -168645103#2 345332034#0 345332034#1"/>
    </vehicle>
    <vehicle id="mot13" type="motorcycle" depart="52.00">
        <route edges="245234770#10 245234770#11 245234770#12 248521874#0 248521874#1 248521874#2 248521874#3 248521874#4 248521870#0 248521870#1 248521870#3 248521870#4 249697086 245546848#0 245546848#1 4559381 15968284 161392066 319447428#0 319447428#1 319447428#2 319447428#3 401773368 327956372 327956373#0 327956373#1 327956374 549928635 549928642#0 549928642#1 549928642#2 549928642#3 549928651 4523223#0 4523223#1 4523223#2 4523223#3 4523223#4 4523223#5 4523223#6 4523223#7 549939606#0 549939606#2 549941138#0"/>
    </vehicle>
    <vehicle id="mot14" type="motorcycle" depart="56.00">
        <route edges="-518473679 4559074#5 4559074#6 4559007 4902378#0 4902378#1 549917967 319453543#0 319453543#1 319453543#2 161392073#0 161392072 319453543#4 319453543#5 319453543#6 319453544 161392067 161392069#1 96097794 15968349 480295115#0 480295115#1 245234770#0 245234770#1 245234770#2 245234770#3 245234770#4 245234770#5 245234770#6 245234770#7 245234770#8 245234770#9 245234770#10 245234770#11 245234770#12 27571486 27571484#3 27571484#4 27571484#5 27571484#6 248521868#3 250338892"/>
    </vehicle>
    <vehicle id="mot15" type="motorcycle" depart="60.00">
        <route edges="4523223#4 4523223#5 4523223#6 4523223#7 549939609#1 549939609#2 549939609#3 549939609#5 549939609#6 549939609#7 549939609#8 327764059#0 327764059#1 161392064#0 161392064#1 161392064#3 161392064#4 161392064#5 319453543#0 319453543#1 319453543#2 161392073#0 161392072 319453543#4 319453543#5 319453543#6 319453544 161392067 161392069#1 96097794 15968349 480295115#0 480295115#1 245234770#0 245234770#1 245234770#2 245234770#3 245234770#4 245234770#5 245234770#6 245234770#7 245234770#8 245234770#9 245234770#10 245234770#11 245234770#12 248521874#0 248521874#1 248521874#2 248521874#3 501500327 501500324 501499002#0 501499002#1 501499002#2 -27571495#8 27571495#8"/>
    </vehicle>
    <vehicle id="mot16" type="motorcycle" depart="64.00">
        <route edges="4727809#0 4727898#1 4727898#2 4727898#4 4727809#4 4727809#5 4727809#6 4727809#7 4727809#8 27218101 466974177#0 466974177#1 -27218103#1 -27218103#0 157483942#6 157483942#7 157483942#8 -157483940#1 -157483940#0 351479491 473679813 506329457#2 -143331532#1 4902433#0 4902433#1 4902433#2 4902433#3 4902433#4 4902433#5 4902433#6 4902433#7 4902433#8 4902433#9 4902433#10 -549928646#1 -549928646#0 549928642#0 549928642#1 549928642#2 549928642#3 549928651 245234861 27570526#0 27570526#1 27570526#3 327764057#0 327764057#1 327764057#2 327764055 473691608#1 473691608#2 473691604#0 473691604#1 473691601#0 28788382#3 27840841#2 27840841#3 27840841#4 27467658#0 27467658#2"/>
    </vehicle>
    <vehicle id="mot17" type="motorcycle" depart="68.00">
        <route edges="27951329#0 27951329#1 27951329#2 27951329#3 248521874#0 248521874#1 248521874#2 248521874#3 248521874#4 248521870#0 248521870#1 248521870#3 248521870#4 249697086 245546848#0 245546848#1 4559381 15968284 161392066 319447428#0 319447428#1 319447428#2 319447428#3 401773368 327956372 327956373#0 327956373#1 4902374#0 4902374#1 4902374#2 4902374#3 -4902433#10 -4902433#9 -4902433#8 -4902433#7 -4902433#6 -4902433#5 -4902433#4 -4902433#3 -4902433#2 -4902433#1 -4902433#0 143331532#1 -506329457#2 -473679813 -351479491 -473679810#3 -473679810#2 -473679810#1 -473679810#0 -157483950#6 -157483950#5 -157483950#4 -157483950#3 -157483950#2 -157483950#1 143331551#0 157483952#0 157483952#1 157483952#2 -157483952#2"/>
    </vehicle>
    <vehicle id="mot18" type="motorcycle" depart="72.00">
        <route edges="-386114158 -4873773#2 -4873773#1 4873772 4770190#1 4770190#2 4770190#3 4770190#4 4770190#5 4727926#0 245560600#0 245560600#1 245560600#2 245560600#3 245560600#4 245560600#5 245560600#6 549941138#0 27490672#0 27490672#1 27490672#2 549939609#1 549939609#2 549939609#3 549939609#5 549939609#6 27570526#0 27570526#1 27570526#3 327764057#0 327764057#1 327764057#2 327764055 473691608#1 473691608#2 473691604#0 -473691604#0"/>
    </vehicle>
    <vehicle id="mot19" type="motorcycle" depart="76.00">
        <route edges="-221893264 245560600#3 245560600#4 245560600#5 549939606#4 549939606#5 -4770191#10 -4770191#9 -4770191#8 -4770191#7 -4770191#6 -4770191#5 -4770191#3 -4770191#1 550753287#5 550753287#6 4727807#3 4727807#4 4727810 -4727809#12 -4727809#11 -4727809#10 -4727809#9 -4727809#8 -4727809#7 -386114196 386114192#2 386114192#3 -386114193"/>
    </vehicle>
    <vehicle id="mot20" type="motorcycle" depart="80.00">
        <route edges="-248521868#3 248521868#3 250338892 324535454#0 324535454#1 324535454#2 248521874#0 248521874#1 248521874#2 248521874#3 248521874#4 248521870#0 248521870#1 248521870#3 248521870#4 249697086 245546848#0 245546848#1 4559381 15968284 161392066 319447428#0 319447428#1 319447428#2 319447428#3 401773368 327956372 327956373#0 327956373#1 4902374#0 4902374#1 4902374#2 4902374#3 -4902433#10 -4902433#9 -4902433#8 -4902433#7 -4902433#6 -4902433#5 -4902433#4 -4902433#3 -4902433#2 -4902433#1 -4902433#0 143331532#1 -506329457#2 -473679813 -351479491 157483940#0 157483940#1 -157483942#8 -157483942#7 -157483942#6 27218103#0 27218103#1 -466974177#1 -466974177#0 -27218101 4727809#9 -4727809#9"/>
    </vehicle>
    <vehicle id="mot21" type="motorcycle" depart="84.00">
        <route edges="-494424630 24184195#1 122735118 27951285#0 27951279#2 331379642 27951276 245546856#0 245546856#1 245546856#2 245546840 245546843#0 245546843#1 245546843#2 245546843#3 250338884 250338892 324535454#0 324535454#1 324535454#2 248521874#0 248521874#1 248521874#2 248521874#3 248521874#4 248521870#0 248521870#1 248521870#3 248521870#4 249697086 245546848#0 245546848#1 4559381 15968284 161392066 319447428#0 319447428#1 319447428#2 319447428#3 401773368 327956372 327956373#0 327956373#1 4902374#0 4902374#1 4902374#2 4902374#3 -4902433#10 -4902433#9 -4902433#8 -4902433#7 -4902433#6 -4902433#5 -4902433#4 -4902433#3 -4902433#2 -4902433#1 -4902433#0 143331532#1 -506329457#2 -473679813 -351479491 -473679810#3 -473679810#2 -473679810#1 -473679814#5 -345328739"/>
    </vehicle>
    <vehicle id="mot22" type="motorcycle" depart="88.00">
        <route edges="-386278915 -4902394#7 -4902394#5 327764057#1 327764057#2 327764055 473691608#1 473691608#2 473691604#0 28885070#0 28885070#1 -340955662 -27803780#2 -27803780#1 179109642#1 28788370#0 28788371#0 28788368#0 28788368#1 -27490680 319453543#1 319453543#2 161392073#0 161392072 319453543#4 319453543#5 319453543#6 319453544 161392067 161392069#1 96097794 15968349 480295115#0 480295115#1 245234770#0 245234770#1 245234770#2 245234770#3 245234770#4 245234770#5 245234770#6 245234770#7 245234770#8 245234770#9 245234770#10 245234770#11 245234770#12 248521874#0 248521874#1 248521874#2 248521874#3 501500327 501500324 501499002#0 501499002#1 501499002#2 501499002#3 501499002#4 501498997 27570951#2 519339286#1 501498998"/>
    </vehicle>
    <vehicle id="mot23" type="motorcycle" depart="92.00">
        <route edges="-27951311 27951309#6 27951309#7 27951309#8 249697086 245546848#0 245546848#1 4559381 15968284 161392066 319447428#0 319447428#1 319447428#2 319447428#3 401773368 327956372 327956373#0 327956373#1 4902374#0 4902374#1 4902374#2 4902374#3 -4902433#10 -4902433#9 -4902433#8 -4902433#7 -4902433#6 4902402 -4902372#2 -4902372#1 -4902372#0 4902419#1 -157643736#5 -157643736#4 -343764294 -157643731#1 -345332018#1 345332018#1"/>
    </vehicle>
    <vehicle id="mot24" type="motorcycle" depart="96.00">
        <route edges="-27572173#1 -27572165#2 -27572165#1 -27572165#0 -53172877#1 -53172877#0 27572154#1 -27572158 -27571858 409581860#6 409581860#7 409581860#9 409581860#10 409581860#11 409581860#12 409581860#13 248521868#0 248521868#1 248521868#2 -27571484#6 -27571484#5 -27571484#4 122735168#0"/>
    </vehicle>
    <vehicle id="mot25" type="motorcycle" depart="100.00">
        <route edges="550860119#2 -550865716 550865716 161389764 550860118#1 550860118#2 550860118#3 249697090#0 249697090#1 249697090#2 249697090#3 249697114#0 4734475#2 4734475#3 4734475#4 4734475#5 4734475#6 4734475#7 323823408 4734488 96097834 15968349 480295115#0 480295115#1 245234770#0 245234770#1 245234770#2 245234770#3 245234770#4 245234770#5 245234770#6 245234770#7 245234770#8 245234770#9 245234770#10 245234770#11 245234770#12 245234770#14 245234770#15 250338821#0 250338821#1 250338817#0 250338817#1 250338817#2 250338817#3 250338817#4 250338817#5 250338817#6 250338817#7 250338817#8 201637618#0 201637618#1 332399555 332399556 24184195#0 24184195#1 24184195#2 24184195#3 27709338"/>
    </vehicle>
    <vehicle id="mot26" type="motorcycle" depart="104.00">
        <route edges="245546863 245234796#1 96494363 248521868#2 248521868#3 250338892 324535454#0 324535454#1 324535454#2 248521874#0 248521874#1 248521874#2 248521874#3 248521874#4 248521870#0 248521870#1 248521870#3 248521870#4 249697086 245546848#0 245546848#1 4559381 161392065 4734490 319453545#0 161389756#0 161389756#1 550860119#0 550860119#2 -550865716 -4734472 221893217#0 221893217#1 221893217#2 221893217#4 221893217#5 28885073 221893215#0 221893215#1 221893215#2 511815818 -27467658#2 -27467658#0 -27840841#4 -327764054#1 -327764054#0 -327764053 -28788374#1 -28788374#0 28788374#0"/>
    </vehicle>
    <vehicle id="mot28" type="motorcycle" depart="112.00">
        <route edges="-473691606#1 -473691606#0 -386278915 -4902394#7 -4902394#5 -4902394#4 -4902394#3 -4902394#2 -4902394#1 -4902394#0 28788362 549928646#0 161392062 4902374#3 -4902433#10 -4902433#9 -4902433#8 -4902433#7 -4902433#6 -4902433#5 -4902433#4 -4902433#3 -4902433#2 -4902433#1 -4902433#0 143331532#1 -506329457#2 -473679813 -351479491 157483940#0 157483940#1 -157483942#8 -157483942#7 -157483942#6 27218103#0 27218103#1 -466974177#1"/>
    </vehicle>
    <vehicle id="mot29" type="motorcycle" depart="116.00">
        <route edges="473679814#2 473679814#3 473679814#4 473679814#5 473679810#1 473679810#2 473679810#3 157483940#0 157483940#1 -157483942#8 -157483942#7 -157483942#6 27218103#0 27218103#1 -466974177#1 -466974177#0 -27218101 4727809#9 4727809#10 4727809#11 4727809#12 4727811 4727808#1 4727808#2 4727808#3 4727808#4 4727808#5 -143306954 -490134197#1 -490134197#0"/>
    </vehicle>
    <vehicle id="mot30" type="motorcycle" depart="120.00">
        <route edges="27571484#4 27571485#0 27571485#1 324535454#2 248521874#0 248521874#1 248521874#2 248521874#3 248521874#4 248521870#0 248521870#1 248521870#3 248521870#4 249697086 245546848#0 245546848#1 4559381 15968284 161392066 319447428#0 319447428#1 319447428#2 319447428#3 401773368 327956372 327956373#0 327956373#1 4902374#0 4902374#1 4902374#2 4902374#3 -4902433#10 -4902433#9 -4902433#8 -4902433#7 -4902433#6 -4902433#5 -4902433#4 -4902433#3 -4902433#2 -4902433#1 -4902433#0 143331532#1 -506329457#2 -473679813 -351479491 -473679810#3 -473679810#2 -473679810#1 -473679810#0 -157483950#6 -157483950#5 -157483950#4 -157483950#3 -157483950#2 -157483950#1 143331551#0 143331551#1 143331551#2 143331551#3"/>
    </vehicle>
    <vehicle id="mot31" type="motorcycle" depart="124.00">
        <route edges="490134197#0 490134197#1 143306954 4727808#6 4727808#7 4727808#8 4727808#9 4727898#4 4727809#4 4727809#5 4727809#6 4727809#7 4727809#8 27218101 466974177#0 466974177#1 -27218103#1 -27218103#0 157483942#6 157483942#7 157483942#8 -157483940#1 -157483940#0 351479491 473679813 506329457#2 -143331532#1 4902433#0 4902433#1 4902433#2 4902433#3 4902433#4 4902433#5 4902433#6 4902433#7 4902433#8 4902433#9 4902433#10 4902416#0 4902416#2 161392064#3 161392064#4 27840836 -27840840#2 -179109642#2 -179109642#1 -179109642#0 179109642#0"/>
    </vehicle>
    <vehicle id="mot32" type="motorcycle" depart="128.00">
        <route edges="245553663#3 245553663#4 245553663#5 245553663#6 4770307#1 4770307#2 -4902389#0 245553663#8 245553663#9 4902426#0 4902426#1 -4902409 -4902375#0 4902371#1 4902371#2 4902419#0 4902419#1 245553663#13 245553663#14 245553663#15 245553663#16 245553663#17 550749977 4559005#1 4559005#2 -550757841 -550741745 -550745968 -550732345 -550873590 -462566123"/>
    </vehicle>
    <vehicle id="mot33" type="motorcycle" depart="132.00">
        <route edges="249697090#4 -249697087#2 249697087#2 4734475#0 4734475#1 4734475#2 4734475#3 4734475#4 4734475#5 4734475#6 4734475#7 323823408 249871000 247833367 161392066 319447428#0 319447428#1 319447428#2 319447428#3 401773368 327956372 327956373#0 327956373#1 327956374 549928635 549928642#0 549928642#1 549928642#2 549928642#3 549928651 4523223#0 4523223#1 4523223#2 -4902415#3 -4902415#2 4902369#0"/>
    </vehicle>
    <vehicle id="mot34" type="motorcycle" depart="136.00">
        <route edges="-88497949#2 -27951326#1 -27951326#0 245234770#10 245234770#11 245234770#12 245234770#14 245234770#15 250338821#0 250338821#1 250338817#0 250338817#1 250338817#2 250338817#3 250338817#4 250338817#5 250338817#6 250338817#7 250338817#8 201637618#0 201637618#1 201637617 442026558 331379640 27558790#1 27558790#2 -229479593 -27558786 122735151#0 -122735186#1 27558788#2 348346368#1 -348346368#1"/>
    </vehicle>
    <vehicle id="mot35" type="motorcycle" depart="140.00">
        <route edges="96097829#1 96097829#2 4523238 327754983 247833369#0 247833369#1 319447428#0 319447428#1 319447428#2 319447428#3 401773368 327956372 327956373#0 327956373#1 327956374 549928635 549928642#0 549928642#1 549928642#2 549928642#3 549928651 4523223#0 4523223#1 4523223#2 4523223#3 4523223#4 4523223#5 4523223#6 4523223#7 549939606#0 245234841 245234846"/>
    </vehicle>
    <vehicle id="mot36" type="motorcycle" depart="144.00">
        <route edges="-24184169#2 24184169#2 27951285#0 27951279#2 331379642 27951276 245546856#0 245546856#1 245546856#2 245546840 245546843#0 245546843#1 245546843#2 245546843#3 250338884 250338892 324535454#0 324535454#1 324535454#2 248521874#0 248521874#1 248521874#2 248521874#3 248521874#4 248521870#0 248521870#1 248521870#3 248521870#4 249697086 245546848#0 245546848#1 4559381 15968284 161392066 319447428#0 319447428#1 319447428#2 319447428#3 401773368 327956372 327956373#0 327956373#1 4902374#0 4902374#1 4902374#2 4902374#3 -4902433#10 -4902433#9 -4902433#8 -4902433#7 -4902433#6 -4902433#5 -4902433#4 -4902433#3 -4902433#2 -4902433#1 -4902433#0 143331532#1 -506329457#2 -506329457#1 -157643730#1 -157643735#1 -157643735#0 -473679814#3 -473679814#2 157642287#0 157642287#1 157642287#2 -157642252"/>
    </vehicle>
    <vehicle id="mot37" type="motorcycle" depart="148.00">
        <route edges="-255915645 -4770190#2 -4770192 4770307#0 4770307#1 4770307#2 -4902389#0 245553663#8 4902415#0 4902415#1 4902369#0 4902441#0 4902441#1 549928642#3 327764059#0 327764059#1 161392064#0 161392064#1 161392064#3 161392064#4 161392064#5 319453543#0 319453543#1 319453543#2 161392073#0 161392072 319453543#4 319453543#5 319453543#6 319453544 161392067 161392069#1 96097794 15968349 480295115#0 480295115#1 245234770#0 245234770#1 245234770#2 245234770#3 245234770#4 245234770#5 245234770#6 245234770#7 245234770#8 245234770#9 245234770#10 245234770#11 245234770#12 27571486 27571484#3 27571484#4 27571484#5 27571484#6 -248521868#2 -248521868#1 -248521868#0 -409581860#13 -409581860#12 -409581860#11 -409581860#10 -409581860#9 -409581860#7 -409581860#6 -409581860#5 -409581860#4 -409581860#3 27571853"/>
    </vehicle>
    <vehicle id="mot38" type="motorcycle" depart="152.00">
        <route edges="-168645107#1 168645107#1 168645107#2 168645107#3 168645107#4 27218104#0 27218104#1 27218104#2 27218104#3 27218104#4 466991750#0 466991750#1 27218105 473679813 506329457#2 -143331532#1 4902433#0 4902433#1 4902433#2 4902433#3 4902433#4 4902433#5 4902433#6 4902433#7 4902433#8 4902433#9 4902433#10 4902416#0 4902416#2 161392064#3 161392064#4 161392064#5 319453543#0 319453543#1 319453543#2 161392073#0 161392072 319453543#4 319453543#5 319453543#6 319453544 161392067 161392069#1 96097794 15968349 480295115#0 480295115#1 245234770#0 245234770#1 245234770#2 245234770#3 245234770#4 245234770#5 245234770#6 245234770#7 245234770#8 245234770#9 245234770#10 245234770#11 245234770#12 248521874#0 248521874#1 248521874#2 248521874#3 501500327 501500324 501499002#0 501499002#1 501499002#2 501499002#3 122735174#0"/>
    </vehicle>
    <vehicle id="mot39" type="motorcycle" depart="156.00">
        <route edges="549928642#2 549928642#3 327764059#0 327764059#1 161392064#0 161392064#1 161392064#3 161392064#4 161392064#5 549345534 549815935 329013842 4559074#0 4559074#1 4559074#2 4559074#3 4559074#4 4559074#5 4559074#6 4559074#7 4559005#0 4559005#1 4559005#2 -550757841 -550741745 -550745968 -550732345 -550873590 4774365#0 -4774367#1 4774370#0 473679823"/>
    </vehicle>
    <vehicle id="mot42" type="motorcycle" depart="168.00">
        <route edges="-27016573#1 27016573#1 27016573#2 27016563#1 -4770191#6 -4770191#5 -4770191#3 4770307#0 4770307#1 4770307#2 -4902389#0 245553663#8 4902415#0 4902415#1 4902369#0 4902441#0 4902441#1 549928642#3 327764059#0 327764059#1 161392064#0 161392064#1 161392064#3"/>
    </vehicle>
    <vehicle id="mot43" type="motorcycle" depart="172.00">
        <route edges="157483949#0 386114184#0 386114184#1 -157483940#2 -157483940#1 -157483940#0 351479491 473679813 506329457#2 -143331532#1 4902433#0 4902433#1 4902433#2 4902433#3 4902433#4 4902433#5 4902433#6 4902433#7 4902433#8 4902433#9 4902433#10 4902416#0 4902416#2 161392064#3 161392064#4 161392064#5 319453543#0 319453543#1 319453543#2 161392073#0 161392072 319453543#4 319453543#5 319453543#6 319453544 161392067 161392069#1 96097794 15968349 480295115#0 480295115#1 245234770#0 245234770#1 245234770#2 245234770#3 245234770#4 245234770#5 245234770#6 245234770#7 245234770#8 245234770#9 245234770#10 245234770#11 245234770#12 248521874#0 248521874#1 248521874#2 248521874#3 501500327 501500324 501499002#0 501499002#1 501499002#2 501499002#3 501499002#4 501498997 27570951#2 519339286#1 519339286#2"/>
    </vehicle>
    <vehicle id="mot44" type="motorcycle" depart="176.00">
        <route edges="168645111#1 168645111#2 27218104#2 27218104#3 27218104#4 466991750#0 466991750#1 27218105 473679813 506329457#2 -143331532#1 4902433#0 4902433#1 4902433#2 4902433#3 4902433#4 4902433#5 4902433#6 4902433#7 4902433#8 4902433#9 4902433#10 4902416#0 4902416#2 161392064#3 161392064#4 161392064#5 319453543#0 319453543#1 319453543#2 161392073#0 161392072 319453543#4 319453543#5 319453543#6 319453544 161392067 161392069#1 96097794 15968349 480295115#0 480295115#1 245234770#0 245234770#1 245234770#2 245234770#3 245234770#4 245234770#5 245234770#6 245234770#7 245234770#8 245234770#9 245234770#10 27951327#0 -122735152#0 27951329#2 -27951332#1"/>
    </vehicle>
    <vehicle id="mot45" type="motorcycle" depart="180.00">
        <route edges="-4727807#3 245553663#3 245553663#4 245553663#5 245553663#6 4770307#1 4770307#2 -4902389#0 245553663#8 4902415#0 4902415#1 4902369#0 4902441#0 4902441#1 549928642#3 327764059#0 327764059#1 161392064#0 161392064#1 161392064#3 161392064#4 161392064#5 319453543#0 319453543#1 319453543#2 161392073#0 161392072 319453543#4 319453543#5 319453543#6 319453544 161392067 161392069#1 96097794 15968349 480295115#0 480295115#1 245234770#0 245234770#1 245234770#2 245234770#3 245234770#4 245234770#5 245234770#6 245234770#7 245234770#8 245234770#9 245234770#10 245234770#11 245234770#12 27571486 27571484#3 27571484#4 27571484#5 27571484#6 -248521868#2 -248521868#1 -248521868#0 -409581860#13 -409581860#12 -409581860#11 -409581860#10 -409581860#9 -409581860#7 -409581860#6 27571858 27572158 -27572154#1 53172877#0 -27572162#3 -27572162#2 -27572162#1 27572173#0"/>
    </vehicle>
    <vehicle id="mot46" type="motorcycle" depart="184.00">
        <route edges="27078594 27016573#1 27016573#2 27016563#1 -4770191#6 -4770191#5 -4770191#3 4770307#0 4770307#1 4770307#2 -4902389#0 245553663#8 4902415#0 4902415#1 4902369#0 4902441#0 4902441#1 549928642#3 327764059#0 327764059#1 161392064#0 161392064#1 161392064#3 161392064#4 161392064#5 319453543#0 319453543#1 319453543#2 161392073#0 161392072 319453543#4 319453543#5 319453543#6 319453544 161392067 161392069#1 96097794 15968349 480295115#0 480295115#1 245234770#0 245234770#1 245234770#2 245234770#3 245234770#4 245234770#5 245234770#6 245234770#7 245234770#8 245234770#9 245234770#10 245234770#11 245234770#12 27571486 27571484#3 27571484#4 27571484#5 27571484#6 -248521868#2 -248521868#1 -248521868#0 -409581860#13 -409581860#12 -27571848#2"/>
    </vehicle>
    <vehicle id="mot47" type="motorcycle" depart="188.00">
        <route edges="345328749#0 345328750#0 345328750#1 466974167#0 -466974160#1 -466974160#0 -157483941#0 473679810#0 473679810#1 473679810#2 473679810#3 351479491 473679813 506329457#2 -143331532#1 4902433#0 4902433#1 4902433#2 4902433#3 4902433#4 4902433#5 4902433#6 4902433#7 4902433#8 4902433#9 4902433#10 4902416#0 4902416#2 161392064#3 161392064#4 161392064#5 319453543#0 319453543#1 319453543#2 161392073#0 161392072 319453543#4 319453543#5 319453543#6 161389765 161392059#0 550860118#0 550860118#1 550860118#2 550860118#3 249697090#0 249697090#1 249697090#2 249697090#3 249697090#4 -249697087#2 249697087#2"/>
    </vehicle>
    <vehicle id="mot48" type="motorcycle" depart="192.00">