<?xml version="1.0" encoding="UTF-8"?>

<!-- generated on Fri Jan 12 12:28:11 2018 by SUMO duarouter Version 0.30.0
<?xml version="1.0" encoding="UTF-8"?>

<configuration xmlns:xsi="http://www.w3.org/2001/XMLSchema-instance" xsi:noNamespaceSchemaLocation="http://sumo.dlr.de/xsd/duarouterConfiguration.xsd">

    <input>
        <net-file value="/media/jefferson/Dados/workspace/gtracker/vanet/sp/sp.net.xml"/>
        <trip-files value="/media/jefferson/Dados/workspace/gtracker/vanet/sp/sp.motorcycle.trips.xml"/>
    </input>

    <output>
        <output-file value="/media/jefferson/Dados/workspace/gtracker/vanet/sp/sp.motorcycle.rou.xml"/>
    </output>

    <processing>
        <ignore-errors value="true"/>
    </processing>

    <time>
        <begin value="0"/>
        <end value="3600.0"/>
    </time>

    <report>
        <no-warnings value="true"/>
        <no-step-log value="true"/>
    </report>

</configuration>
-->

<routes xmlns:xsi="http://www.w3.org/2001/XMLSchema-instance" xsi:noNamespaceSchemaLocation="http://sumo.dlr.de/xsd/routes_file.xsd">
    <vType id="motorcycle" vClass="motorcycle"/>
    <vehicle id="mot3" type="motorcycle" depart="12.00">
        <route edges="-550867442#2 -550867442#1 -550867442#0 -229481708#2 -229481708#0 402922224 380438949#0 380438949#1 319447428#1 319447428#2 319447428#3 8148885#0 8148885#1 4559074#0 4559074#1 4559074#2 4559074#3 4559074#4 4559074#5 4559074#6 4559074#7 4559005#0 4559005#1 4559005#2 -550757841 -550741745 -550745968 -550732345 -550873590 -462566123"/>
    </vehicle>
    <vehicle id="mot4" type="motorcycle" depart="16.00">
        <route edges="4902441 549928642#3 327764059#0 327764059#1 161392064#0 161392064#1 161392064#3 161392064#4 161392064#5 549345534 549815935 329013842 4559074#0 4559074#1 4559074#2 4559074#3 4559074#4 4559074#5 4559074#6 4559074#7 4559005#0 4559005#1 386223029"/>
    </vehicle>
    <vehicle id="mot8" type="motorcycle" depart="32.00">
        <route edges="344144147#0 473684641#0 473684641#1 4806304#0 4806304#1 4806304#2 327754983 4734476#0 4734476#1 319453545#0 161389756#0 161389756#1 550860119#0 550860118#0 550860118#1 386278897"/>
    </vehicle>
    <vehicle id="mot12" type="motorcycle" depart="48.00">
        <route edges="96097829#2 4523238 327754983 247833369#0 247833369#1 319447428#0 319447428#1 319447428#2 319447428#3 401773368 327956372 327956373#0 327956373#1 327956374 27570528#0 -28788365#2 28788365#2"/>
    </vehicle>
    <vehicle id="mot13" type="motorcycle" depart="52.00">
        <route edges="96097829#1 96097829#2 4523238 327754983 247833369#0 247833369#1 319447428#0 319447428#1 319447428#2 319447428#3 401773368 327956372 327956373#0 327956373#1 327956374 27570528#0 27570528#1 27570528#2 -27570527#3 28885040#3"/>
    </vehicle>
    <vehicle id="mot15" type="motorcycle" depart="60.00">
        <route edges="-28788370#0 28788370#0 28788371#0 28788368#0 28788368#1 -27490680 319453543#1 319453543#2 161392073#0 161392072 319453543#4 319453543#5 319453543#6 161389765 247833371#0 247833371#1-AddedOnRampEdge 247833371#1 161389762-AddedOnRampEdge 161389762 249870999"/>
    </vehicle>
    <vehicle id="mot17" type="motorcycle" depart="68.00">
        <route edges="549939609#0 549939609#1 549939609#2 549939609#3 327764059#0 327764059#1 161392064#0 161392064#1 161392064#3 161392064#4 161392064#5 549345534 549815935 329013842 4559074#0 4559074#1 4559074#2 4559074#3 4559074#4 4559074#5 4559074#6 4559007 4902378#0 4902378#1 549917967"/>
    </vehicle>
    <vehicle id="mot19" type="motorcycle" depart="76.00">
        <route edges="-518474788 -162043156 39368522#5 -229481708#0 402922224 380438949#0 380438949#1 319447428#1 319447428#2 319447428#3 401773368 327956372 327956373#0 327956373#1 327956374 27570528#0 27570528#1 -27570528#1"/>
    </vehicle>
    <vehicle id="mot20" type="motorcycle" depart="80.00">
        <route edges="518473680 4559074#3 4559074#4 4559074#5 4559074#6 4559074#7 4559087 4559118 550753286 550753287#0 550753287#1 550753287#2 550753287#3 550753287#4"/>
    </vehicle>
    <vehicle id="mot22" type="motorcycle" depart="88.00">
        <route edges="245553663#5 245553663#6 245553663#7 245553663#8 245553663#9 418990606 4902378#0 4902378#1 549917967 319453543#0 319453543#1"/>
    </vehicle>
    <vehicle id="mot23" type="motorcycle" depart="92.00">
        <route edges="-4774365#1 -4774365#0 550873590 550732345 550745968 550741745 550757841 550725735#0 550756710#0 550756710#1 550747490 4902378#0 4902474 327956373#1 327956374 161392064#3"/>
    </vehicle>
    <vehicle id="mot24" type="motorcycle" depart="96.00">
        <route edges="96097829#1 96097829#2 4523238 327754983 247833369#0 247833369#1 319447428#0 319447428#1 319447428#2 319447428#3 8148885#0 8148885#1 4559074#0 4559074#1 4559074#2 4559074#3 4559074#4 4559074#5 4559074#6 4559074#7 4559005#0 4559005#1"/>
    </vehicle>
    <vehicle id="mot25" type="motorcycle" depart="100.00">
        <route edges="-550867442#2 -550867442#1 -550867442#0 -229481708#2 -229481708#0 402922224 380438949#0 380438949#1 319447428#1 319447428#2 319447428#3 401773368 327956372 327956373#0 327956373#1 327956374"/>
    </vehicle>
    <vehicle id="mot27" type="motorcycle" depart="108.00">
        <route edges="4902453 549928642#1 549928642#2 549928642#3 549928648#0 4902394#2 27570527#2 27570527#3 27570527#4 -340955662 -27803780#2 -27803780#1 -27803780#0 -27840838#2 -27840838#1"/>
    </vehicle>
    <vehicle id="mot29" type="motorcycle" depart="116.00">
        <route edges="-473691589 39368522#2 -518474575 -473691590#0 39368524#2 380438949#1 319447428#1 319447428#2 319447428#3 401773368 327956372 327956373#0 327956373#1 327956374 27570528#0 -28788365#2 -28788365#1 4902394#1 4902394#2 -27570527#1 27570527#1"/>
    </vehicle>
    <vehicle id="mot30" type="motorcycle" depart="120.00">
        <route edges="179109642#2 27840840#2 -27840836 161392064#5 549345534 549815935 329013842 4559074#0 4559074#1 4559074#2 4559074#3 4559074#4 4559074#5 4559074#6 4559074#7 4559005#0 4559005#1 4559005#2 -550757841 -550741745 -550745968 -550732345 4877453 143331549#0 143331549#1 143331549#2"/>
    </vehicle>
    <vehicle id="mot34" type="motorcycle" depart="136.00">
        <route edges="28788361#2 -27570528#3 27570527#4 -340955662 -27803780#2 -28788366 -27840836 161392064#5 549345534 549815935 329013842 4559074#0 4559074#1 4559074#2 4559074#3 4559074#4 4559074#5 4559074#6 4559074#7 4559005#0 4559005#1 4559005#2 -550757841 -550741745 -550745968 -550732345 -550873590 4774365#0 4774404"/>
    </vehicle>
    <vehicle id="mot37" type="motorcycle" depart="148.00">
        <route edges="-27840838#1 27840838#1 27840838#2 27803780#0 27803780#1 27803780#2 340955662 -27570527#4 -27570527#3 -27570527#2 -4902394#2 -4902394#1 -4902394#0 28788362 549928642#0 549928642#1 549928642#2 -4902441"/>
    </vehicle>
    <vehicle id="mot39" type="motorcycle" depart="156.00">
        <route edges="4902416#2 161392064#3 161392064#4 161392064#5 319453543#0 319453543#1 319453543#2 161392073#0 161392072 319453543#4 319453543#5 319453543#6 161389765 247833371#0 247833371#1-AddedOnRampEdge 247833371#1 161389762-AddedOnRampEdge"/>
    </vehicle>
    <vehicle id="mot40" type="motorcycle" depart="160.00">
        <route edges="4559381 15968284 161392066 319447428#0 319447428#1 319447428#2 319447428#3 401773368 327956372 327956373#0 327956373#1 4902374#0 4902374#1 4902374#2 4902374#3 4902436#0 4902451#1 -4902418#4"/>
    </vehicle>
    <vehicle id="mot49" type="motorcycle" depart="196.00">
        <route edges="-28788368#0 28788368#0 28788368#1 -27490680 319453543#1 319453543#2 161392073#0 161392072 319453543#4 319453543#5 319453543#6 161389765 247833371#0 247833371#1-AddedOnRampEdge 247833371#1 161389762-AddedOnRampEdge 161389762 249870999"/>
    </vehicle>
    <vehicle id="mot50" type="motorcycle" depart="200.00">
        <route edges="161392065 247833370#0 -473684642#1 -473684642#0 327754983 247833369#0 247833369#1 319447428#0 319447428#1 319447428#2 319447428#3 401773368 327956372 327956373#0 327956373#1 327956374 27570528#0 -28788365#2 -28788365#1 4902394#1 4902394#2 4902394#3 4902394#4 327764057#1 327764057#2"/>
    </vehicle>
    <vehicle id="mot58" type="motorcycle" depart="232.00">
        <route edges="39368524#1 39368524#2 380438949#1 319447428#1 319447428#2 319447428#3 401773368 327956372 327956373#0 327956373#1 327956374 549928635 549928642#0 -4902453"/>
    </vehicle>
    <vehicle id="mot59" type="motorcycle" depart="236.00">
        <route edges="-4774365#1 -4774365#0 550873590 550732345 550745968 550741745 550757841 550725735#0 550756710#0 550756710#1 550747490 4902378#0 4902378#1 549917967 319453543#0 319453543#1 319453543#2 161392073#0 161392072 319453543#4 319453543#5 319453543#6 161389765 161392059#0 550860119#2 -550865716 -4734472 221893217#0 221893217#1 221893217#2 221893217#3 -221893217#3"/>
    </vehicle>
    <vehicle id="mot61" type="motorcycle" depart="244.00">
        <route edges="473684641#0 473684641#1 550712035 -550712033 -550867442#1 -550867442#0 -229481708#2 -229481708#0 402922224 380438949#0 380438949#1 319447428#1 319447428#2 319447428#3 401773368 327956372 327956373#0 327956373#1 327956374 27570528#0 -28788365#2 -28788365#1 4902394#1 4902394#2 4902394#3 4902394#4 4902394#5 4902394#7"/>
    </vehicle>
    <vehicle id="mot62" type="motorcycle" depart="248.00">
        <route edges="319447428#0 319447428#1 319447428#2 319447428#3 8148885#0 8148885#1 4559074#0 4559074#1 4559074#2 4559074#3 4559074#4 4559074#5 4559074#6 4559074#7 4559087 4559118 550753286 550753287#0 550753287#1 550753287#2 550753287#3 550753287#4 550753287#5"/>
    </vehicle>
    <vehicle id="mot63" type="motorcycle" depart="252.00">
        <route edges="549915319 327956372 327956373#0 327956373#1 327956374 27570528#0 -28788365#2 -28788365#1 4902394#1 4902394#2 4902394#3 4902394#4 4902394#5 386278913"/>
    </vehicle>
    <vehicle id="mot64" type="motorcycle" depart="256.00">
        <route edges="4559381 15968284 161392066 319447428#0 319447428#1 319447428#2 319447428#3 401773368 327956372 327956373#0 327956373#1 4902374#0 4902374#1 4902374#2 4902374#3 -549928646#1 -549928646#0 -28788362 28788362"/>
    </vehicle>
    <vehicle id="mot67" type="motorcycle" depart="268.00">
        <route edges="327764057#1 -327764057#1 -4902394#4 -4902394#3 -4902394#2 -4902394#1 -4902394#0 161392064#0 161392064#1 161392064#3 161392064#4 161392064#5 549345534 549815935 329013842 4559074#0 4559074#1 4559074#2 4559074#3 4559074#4 4559074#5 4559074#6 4559074#7 4559005#0 4559005#1 4559005#2 -550757841 -550741745 -550745968 -550732345 4877453 143331549#0"/>
    </vehicle>
    <vehicle id="mot68" type="motorcycle" depart="272.00">
        <route edges="-27840840#0 28788368#1 -27490680 319453543#1 319453543#2 161392073#0 161392072 319453543#4 319453543#5 319453543#6 319453544 161392067 161392069#1 96097794 15968349"/>
    </vehicle>
    <vehicle id="mot69" type="motorcycle" depart="276.00">
        <route edges="-4902451#2 -4902451#1 -4902436#0 4902416#0 4902416#2 161392064#3 161392064#4 161392064#5 319453543#0 319453543#1 319453543#2 161392073#0 161392072 319453543#4 319453543#5 319453543#6 319453544 161392067"/>
    </vehicle>
    <vehicle id="mot74" type="motorcycle" depart="296.00">
        <route edges="245553663#1 245553663#2 4902426 549928642#2 549928642#3 549928648#0 4902394#2 4902394#3 4902394#4 4902394#5 -327764058"/>
    </vehicle>
    <vehicle id="mot78" type="motorcycle" depart="312.00">
        <route edges="380438949#0 380438949#1 319447428#1 319447428#2 319447428#3 401773368 327956372 327956373#0 327956373#1 4902374#0 4902374#1 4902374#2 4902374#3 4902436#0 4902436#1 -4902428 8154721#1 8154721#2 8154721#3 4902373 4902391"/>
    </vehicle>
    <vehicle id="mot79" type="motorcycle" depart="316.00">
        <route edges="4902418#1 4902418#2 4902418#3 4902418#4 -4902451#1 -4902436#0 4902416#0 4902416#2 161392064#3 161392064#4 161392064#5 319453543#0 319453543#1 319453543#2 161392073#0 161392072 319453543#4 319453543#5 319453543#6 161389765 161392059#0 550860118#0 550860118#1 550860118#2 161389758 161389756#1 550860119#0"/>
    </vehicle>
    <vehicle id="mot82" type="motorcycle" depart="328.00">
        <route edges="4559381 15968284 161392066 319447428#0 319447428#1 319447428#2 319447428#3 401773368 327956372 327956373#0 327956373#1 327956374 161392064#3 161392064#4 27840836 -27840840#2 -27840840#1"/>
    </vehicle>
    <vehicle id="mot83" type="motorcycle" depart="332.00">
        <route edges="4559074#6 4559007 4902378#0 4902378#1 549917967 319453543#0 319453543#1 319453543#2 161392073#0 161392072 319453543#4 319453543#5 319453543#6 161389765 247833371#0 247833371#1-AddedOnRampEdge 247833371#1 161389762-AddedOnRampEdge 161389762 249870999"/>
    </vehicle>
    <vehicle id="mot85" type="motorcycle" depart="340.00">
        <route edges="245553663#0 245553663#1 245553663#2 4902426 549928642#2 549928642#3 549928648#0 4902394#2 4902394#3 4902394#4 4902394#5 386278913"/>
    </vehicle>
    <vehicle id="mot86" type="motorcycle" depart="344.00">
        <route edges="-550867442#2 -550867442#1 -550867442#0 -229481708#2 -229481708#0 402922224 380438949#0 380438949#1 319447428#1 319447428#2 319447428#3 401773368 327956372 327956373#0 327956373#1 327956374 549928635 549928646#0"/>
    </vehicle>
    <vehicle id="mot87" type="motorcycle" depart="348.00">
        <route edges="-162043157#0 -162043156 39368522#5 -229481708#0 402922224 380438949#0 380438949#1 319447428#1 319447428#2 319447428#3 8148885#0 8148885#1 4559074#0 4559074#1 4559074#2 4559074#3 4559074#4 4559074#5 4559074#6 4559074#7 4559087 4559118 550753286 550753287#0 550753287#1 550753287#2 550753287#3 550753287#4 550753287#5"/>
    </vehicle>
    <vehicle id="mot88" type="motorcycle" depart="352.00">
        <route edges="247833369#1 319447428#0 319447428#1 319447428#2 319447428#3 401773368 327956372 327956373#0 327956373#1 4902374#0 4902374#1 4902374#2 4902374#3 -549928646#1 -549928646#0 -28788362 4902394#0"/>
    </vehicle>
    <vehicle id="mot91" type="motorcycle" depart="364.00">
        <route edges="-27840841#1 -27840841#0 340955662 -27570527#4 -27570527#3 -27570527#2 -4902394#2 -4902394#1 -4902394#0 28788362 549928646#0 161392062 4902374#3 4902436#0 -4902451#0"/>
    </vehicle>
    <vehicle id="mot92" type="motorcycle" depart="368.00">
        <route edges="-473691590#1 -473691590#0 39368524#2 380438949#1 319447428#1 319447428#2 319447428#3 401773368 327956372 327956373#0 327956373#1 327956374 27570528#0 27570528#1 549928648#3 -28885070#1 -28885070#0"/>
    </vehicle>
    <vehicle id="mot93" type="motorcycle" depart="372.00">
        <route edges="-473684642#1 -473684642#0 327754983 247833369#0 247833369#1 319447428#0 319447428#1 319447428#2 319447428#3 401773368 327956372 327956373#0 327956373#1 327956374 549928635 549928642#0 549928642#1 549928642#2 -4902441"/>
    </vehicle>
    <vehicle id="mot94" type="motorcycle" depart="376.00">
        <route edges="-473691594 -27840841#0 340955662 -27570527#4 -27570527#3 -27570527#2 -4902394#2 -4902394#1 -4902394#0 28788362 549928642#0 -4902453"/>
    </vehicle>
    <vehicle id="mot95" type="motorcycle" depart="380.00">
        <route edges="518473672 518473674 -518473674 518473673 -550732345 -550873590 4774365#0 -4774365#0 550873590 550732345 550745968 550741745 550757841 550725735#0 550756710#0 550756710#1 550747490 4902378#0 4902378#1 549917967 319453543#0 27490680 -28788368#1 -28788368#0 -28788371#0 -28788370#0 -179109642#1 27803780#1 27803780#2 27840841#0 27840841#1"/>
    </vehicle>
    <vehicle id="mot97" type="motorcycle" depart="388.00">
        <route edges="-473684642#1 -473684642#0 327754983 247833369#0 247833369#1 319447428#0 319447428#1 319447428#2 319447428#3 401773368 327956372 327956373#0 327956373#1 327956374 27570528#0 27570528#1 27570528#2 -27570527#3 -27570527#2"/>
    </vehicle>
    <vehicle id="mot98" type="motorcycle" depart="392.00">
        <route edges="96097829#0 96097829#1 96097829#2 4523238 327754983 247833369#0 247833369#1 319447428#0 319447428#1 319447428#2 319447428#3 401773368 327956372 327956373#0 327956373#1 327956374 27570528#0 27570528#1 549928648#3 -28885070#1 -28885070#0"/>
    </vehicle>
    <vehicle id="mot99" type="motorcycle" depart="396.00">
        <route edges="4734475#3 4734475#4 323823408 249871000 247833367 161392066 319447428#0 319447428#1 319447428#2 319447428#3 8148885#0 8148885#1 4559074#0 4559074#1 4559074#2 4559074#3 4559074#4 4559074#5 4559074#6 4559074#7 4559087 4559118 550753286 550753287#0 550753287#1 550753287#2 550753287#3 550753287#4 550753287#5"/>
    </vehicle>
    <vehicle id="mot102" type="motorcycle" depart="408.00">
        <route edges="4902426 549928642#2 549928642#3 549928648#0 4902394#2 27570527#2 27570527#3 27570527#4 -340955662 -27803780#2 -27803780#1 -27803780#0 -27840838#2 -27840838#1"/>
    </vehicle>
    <vehicle id="mot104" type="motorcycle" depart="416.00">
        <route edges="-27840841#1 -27840841#0 -27803780#2 -27803780#1 179109642#1 28788370#0 28788371#0 28788368#0 28788368#1 -27490680 319453543#1 319453543#2 161392073#0 161392072 319453543#4 319453543#5 319453543#6 161389765 161392059#0 550860118#0 550860118#1 550860118#2"/>
    </vehicle>
    <vehicle id="mot106" type="motorcycle" depart="424.00">
        <route edges="39368524#1 39368524#2 380438949#1 319447428#1 319447428#2 319447428#3 401773368 327956372 327956373#0 327956373#1 4902374#0 4902374#1 4902374#2 4902374#3 4902436#0 4902436#1 -4902428 8154721#1 -8154721#1"/>
    </vehicle>
    <vehicle id="mot107" type="motorcycle" depart="428.00">
        <route edges="-229481708#0 402922224 380438949#0 380438949#1 319447428#1 319447428#2 319447428#3 401773368 327956372 327956373#0 327956373#1 4902374#0 4902374#1 4902374#2 4902374#3 4902436#0 4902451#1 -4902418#4 -4902418#3 -4902418#2 -4902418#1 4902392"/>
    </vehicle>
    <vehicle id="mot108" type="motorcycle" depart="432.00">
        <route edges="245553663#3 245553663#4 245553663#5 245553663#6 245553663#7 245553663#8 245553663#9 550749977 4559005#1 4559005#2"/>
    </vehicle>
    <vehicle id="mot111" type="motorcycle" depart="444.00">
        <route edges="-518473674 518473673 -550732345 -550873590 4774365#0 -4774365#0 550873590 550732345 550745968 550741745 550757841 550725735#0 4559084 550753287#0 550753287#1 550753287#2 550753287#3"/>
    </vehicle>
    <vehicle id="mot112" type="motorcycle" depart="448.00">
        <route edges="473684643 -473684642#0 327754983 247833369#0 247833369#1 319447428#0 319447428#1 319447428#2 319447428#3 401773368 327956372 327956373#0 327956373#1 4902374#0 4902374#1 4902374#2 4902374#3 4902436#0 4902451#1 -4902418#4"/>
    </vehicle>
    <vehicle id="mot113" type="motorcycle" depart="452.00">
        <route edges="28788360#1 28788360#2 327764059#0 327764059#1 161392064#0 161392064#1 161392064#3 161392064#4 161392064#5 549345534 549815935 329013842 4559074#0 4559074#1 4559074#2 4559074#3 4559074#4 4559074#5 4559074#6 4559074#7 4559005#0 4559005#1 386223029 550735550"/>
    </vehicle>
    <vehicle id="mot115" type="motorcycle" depart="460.00">
        <route edges="4559381 15968284 161392066 319447428#0 319447428#1 319447428#2 319447428#3 401773368 327956372 327956373#0 327956373#1 327956374 27570528#0 -28788365#2 28788365#2"/>
    </vehicle>
    <vehicle id="mot118" type="motorcycle" depart="472.00">
        <route edges="4806304#2 327754983 247833369#0 247833369#1 161392078 245234799#3 245234799#4 245234799#5 245234799#6 161392075#0 161392075#1 319453543#2 161392073#0 -27467656"/>
    </vehicle>
    <vehicle id="mot119" type="motorcycle" depart="476.00">
        <route edges="4902414#2 4902414#3 161389761#1 245553663#8 245553663#9 418990606 4902378#0 4902378#1 549917967 319453543#0 319453543#1 161392075#2 245234799#6 245234799#0 245234799#1 245234799#2"/>
    </vehicle>
    <vehicle id="mot123" type="motorcycle" depart="492.00">
        <route edges="4559381 15968284 161392066 319447428#0 319447428#1 319447428#2 319447428#3 401773368 327956372 327956373#0 327956373#1 327956374 27570528#0 -28788365#2 -28788365#1 4902394#1"/>
    </vehicle>
    <vehicle id="mot127" type="motorcycle" depart="508.00">
        <route edges="-162043156 39368522#5 -229481708#0 402922224 380438949#0 380438949#1 319447428#1 319447428#2 319447428#3 401773368 327956372 327956373#0 327956373#1 4902374#0 4902440#0 4902440#1 4902440#2"/>
    </vehicle>
    <vehicle id="mot129" type="motorcycle" depart="516.00">
        <route edges="-4774365#1 -4774365#0 550873590 550732345 550745968 550741745 550757841 550725735#0 550756710#0 550756710#1 550747490 4902378#0 4902378#1 549917967 319453543#0 319453543#1 161392075#2 245234799#6 245234799#0 245234799#1"/>
    </vehicle>
    <vehicle id="mot130" type="motorcycle" depart="520.00">
        <route edges="96097829#0 96097829#1 96097829#2 4523238 327754983 247833369#0 247833369#1 319447428#0 319447428#1 319447428#2 319447428#3 401773368 327956372 327956373#0 327956373#1 4902374#0 4902440#0 4902440#1 161389761#0 161389761#1"/>
    </vehicle>
    <vehicle id="mot134" type="motorcycle" depart="536.00">
        <route edges="344144147#0 473684641#0 473684641#1 550712035 -550712033 -550867442#1 -550867442#0 -229481708#2 -229481708#0 402922224 380438949#0 380438949#1 319447428#1 319447428#2 319447428#3 401773368 327956372 327956373#0 327956373#1 4902374#0 4902374#1 4902374#2 4902374#3 -549928646#1 -549928646#0 -28788362 161392064#0"/>
    </vehicle>
    <vehicle id="mot135" type="motorcycle" depart="540.00">
        <route edges="4734475#0 4734475#1 4734475#2 4734475#3 4734475#4 323823408 249871000 247833367 161392066 319447428#0 319447428#1 319447428#2 319447428#3 401773368 327956372 327956373#0 327956373#1 327956374 27570528#0 -28788365#2 -28788365#1 -28788365#0"/>
    </vehicle>
    <vehicle id="mot137" type="motorcycle" depart="548.00">
        <route edges="-550867442#2 -550867442#1 -550867442#0 -229481708#2 -229481708#0 402922224 380438949#0 380438949#1 319447428#1 319447428#2 319447428#3 8148885#0 8148885#1 4559074#0 4559074#1 4559074#2 4559074#3 4559074#4 4559074#5 4559074#6 4559007 4902378#0 4902378#1 549917967 319453543#0 27490680 27840838#0 27840838#1 27840838#2 -28885055#1"/>
    </vehicle>
    <vehicle id="mot142" type="motorcycle" depart="568.00">
        <route edges="-327764057#1 -4902394#4 -4902394#3 -4902394#2 -4902394#1 -4902394#0 28788362 549928646#0 161392062 4902374#3 4902436#0 4902436#1 -4902428 8154721#1 8154721#2 8154721#3 4902414#1 4902414#2 4902414#3 161389761#1 161389761#2 550753287#2 550753287#3 550753287#4"/>
    </vehicle>
    <vehicle id="mot143" type="motorcycle" depart="572.00">
        <route edges="-518474788 -162043156 39368522#5 -229481708#0 402922224 380438949#0 380438949#1 319447428#1 319447428#2 319447428#3 401773368 327956372 327956373#0 327956373#1 327956374 161392064#3 161392064#4 27840836 28788366 27803780#2 27840841#0 27840841#1"/>
    </vehicle>
    <vehicle id="mot147" type="motorcycle" depart="588.00">
        <route edges="247833370#0 -473684642#1 -473684642#0 327754983 247833369#0 247833369#1 319447428#0 319447428#1 319447428#2 319447428#3 401773368 327956372 327956373#0 327956373#1 4902374#0 4902440#0 4902440#1 161389761#0 161389761#1 245553663#8"/>
    </vehicle>
    <vehicle id="mot152" type="motorcycle" depart="608.00">
        <route edges="-473691589 39368522#2 -518474575 -473691590#0 39368524#2 380438949#1 319447428#1 319447428#2 319447428#3 401773368 327956372 327956373#0 327956373#1 327956374 27570528#0 27570528#1 549928648#3 -28885070#1"/>
    </vehicle>
    <vehicle id="mot154" type="motorcycle" depart="616.00">
        <route edges="-4774404 -4774365#0 550873590 550732345 550745968 550741745 550757841 550725735#0 550756710#0 550756710#1 550747490 4902378#0 4902474 327956373#1 327956374 549928635 549928642#0 549928642#1 549928642#2 -4902441"/>
    </vehicle>
    <vehicle id="mot156" type="motorcycle" depart="624.00">
        <route edges="-4902399 4902418#2 4902418#3 4902418#4 -4902451#1 -4902436#0 4902416#0 4902416#2 161392064#3 161392064#4 161392064#5 319453543#0 319453543#1 319453543#2 161392073#0 161392072 319453543#4 319453543#5 319453543#6 319453544 161392067 161392068"/>
    </vehicle>
    <vehicle id="mot157" type="motorcycle" depart="628.00">
        <route edges="4734475#4 323823408 249871000 247833367 161392066 319447428#0 319447428#1 319447428#2 319447428#3 401773368 327956372 327956373#0 327956373#1 327956374 27570528#0 -28788365#2 28885040#1"/>
    </vehicle>
    <vehicle id="mot160" type="motorcycle" depart="640.00">
        <route edges="245234799#2 245234799#3 245234799#4 245234799#5 245234799#6 245234799#0 549915319 327956372 327956373#0 327956373#1 327956374 549928635 549928642#0 -4902453"/>
    </vehicle>
    <vehicle id="mot161" type="motorcycle" depart="644.00">
        <route edges="-550867442#2 -550867442#1 -550867442#0 -229481708#2 -229481708#0 402922224 380438949#0 380438949#1 319447428#1 319447428#2 319447428#3 401773368 327956372 327956373#0 327956373#1 327956374 27570528#0 27570528#1 27570528#2 27570527#4"/>
    </vehicle>
    <vehicle id="mot165" type="motorcycle" depart="660.00">
        <route edges="4902414#2 4902414#3 161389761#1 245553663#8 245553663#9 418990606 4902378#0 4902378#1 549917967 319453543#0 319453543#1 319453543#2 161392073#0 161392072 319453543#4 319453543#5"/>
    </vehicle>
    <vehicle id="mot167" type="motorcycle" depart="668.00">
        <route edges="39368522#0 39368522#1 39368522#2 -518474575 -473691590#0 39368524#2 380438949#1 319447428#1 319447428#2 319447428#3 401773368 327956372 327956373#0 327956373#1 327956374 549928635 549928642#0 -4902453"/>
    </vehicle>
    <vehicle id="mot170" type="motorcycle" depart="680.00">
        <route edges="4902418#1 4902418#2 4902418#3 4902418#4 -4902451#1 -4902436#0 -549928646#1 -549928646#0 -28788362 4902394#0 4902394#1 4902394#2 4902394#3 4902394#4 4902394#5 386278913"/>
    </vehicle>
    <vehicle id="mot173" type="motorcycle" depart="692.00">
        <route edges="473684642#0 -473684642#0 327754983 247833369#0 247833369#1 319447428#0 319447428#1 319447428#2 319447428#3 401773368 327956372 327956373#0 327956373#1 327956374 161392064#3 161392064#4 27840836 -27840840#2 -179109642#2 -179109642#1 -179109642#0 -28885055#0"/>
    </vehicle>
    <vehicle id="mot178" type="motorcycle" depart="712.00">
        <route edges="4902441 549928642#3 327764059#0 327764059#1 161392064#0 161392064#1 161392064#3 161392064#4 161392064#5 319453543#0 319453543#1 319453543#2 161392073#0 161392072 319453543#4 319453543#5 319453543#6 161389765 161392059#0 550860119#2 -550865716 -4734472 221893217#0 -548651990#1"/>
    </vehicle>
    <vehicle id="mot181" type="motorcycle" depart="724.00">
        <route edges="4806304#1 4806304#2 327754983 247833369#0 247833369#1 319447428#0 319447428#1 319447428#2 319447428#3 401773368 327956372 327956373#0 327956373#1 327956374 161392064#3 161392064#4 27840836 28788366 27803780#2 27840841#0 27840841#1"/>
    </vehicle>
    <vehicle id="mot182" type="motorcycle" depart="728.00">
        <route edges="473684642#0 -473684642#0 327754983 247833369#0 247833369#1 319447428#0 319447428#1 319447428#2 319447428#3 401773368 327956372 327956373#0 327956373#1 327956374 27570528#0 -28788365#2 -28788365#1 4902394#1 4902394#2"/>
    </vehicle>
    <vehicle id="mot185" type="motorcycle" depart="740.00">
        <route edges="-4902418#0 4902370 -8154721#2 -8154721#1 4902428 -4902436#1 -4902436#0 4902416#0 4902416#2 161392064#3 161392064#4 161392064#5 319453543#0 319453543#1 319453543#2 161392073#0 161392072 319453543#4 319453543#5 319453543#6 161389765 247833371#0 247833371#1-AddedOnRampEdge 247833371#1 161389762-AddedOnRampEdge 161389762 249870999"/>
    </vehicle>
    <vehicle id="mot187" type="motorcycle" depart="748.00">
        <route edges="418990606 4902378#0 4902378#1 549917967 319453543#0 319453543#1 319453543#2 161392073#0 161392072 319453543#4 319453543#5 319453543#6 319453544 161392067 161392069#1 96097794 15968349"/>
    </vehicle>
    <vehicle id="mot190" type="motorcycle" depart="760.00">
        <route edges="344144147#0 473684641#0 473684641#1 4806304#0 4806304#1 4806304#2 327754983 4734476#0 4734476#1 319453545#0 161389756#0 161389756#1 247833368 247833371#1-AddedOnRampEdge 247833371#1"/>
    </vehicle>
    <vehicle id="mot191" type="motorcycle" depart="764.00">
        <route edges="-39368524#2 39368524#2 380438949#1 319447428#1 319447428#2 319447428#3 401773368 327956372 327956373#0 327956373#1 327956374 549928635 549928642#0 549928642#1 549928642#2 -4902441"/>
    </vehicle>
    <vehicle id="mot197" type="motorcycle" depart="788.00">
        <route edges="4902436#1 -4902436#1 -4902436#0 4902416#0 4902416#2 161392064#3 161392064#4 161392064#5 319453543#0 319453543#1 319453543#2 161392073#0 161392072 319453543#4 319453543#5 319453543#6 161389765 161392059#0 550860119#2 -550865716 -4734472 221893217#0 221893217#1 221893217#2"/>
    </vehicle>
    <vehicle id="mot201" type="motorcycle" depart="804.00">
        <route edges="4902447 -4902447 4902451#0 -4902436#0 4902416#0 4902416#2 161392064#3 161392064#4 161392064#5 319453543#0 319453543#1 319453543#2 161392073#0 161392072 319453543#4 319453543#5 319453543#6 319453544 161392067 161392069#1 96097794 15968349"/>
    </vehicle>
    <vehicle id="mot204" type="motorcycle" depart="816.00">
        <route edges="-4902394#7 -4902394#5 -4902394#4 -4902394#3 27570527#2 27570527#3 27570527#4 -340955662 -27803780#2 -27803780#1 179109642#1 28788370#0 28788371#0 28788368#0 28788368#1 -27490680 319453543#1 319453543#2 161392073#0 161392072 319453543#4 319453543#5 319453543#6 319453544 161392067 161392069#1 96097794"/>
    </vehicle>
    <vehicle id="mot206" type="motorcycle" depart="824.00">