<?xml version="1.0"?>
<!-- generated on 2018-01-15 22:06:35.491745 by $Id: randomTrips.py 23999 2017-04-21 09:04:47Z behrisch $
  options: create
-->
<routes xmlns:xsi="http://www.w3.org/2001/XMLSchema-instance" xsi:noNamespaceSchemaLocation="http://sumo.dlr.de/xsd/routes_file.xsd">
    <vType id="motorcycle" vClass="motorcycle" />
    <trip id="mot0" depart="0.00" from="27570527#3" to="-143331551#5" type="motorcycle"/>
    <trip id="mot1" depart="4.00" from="-409581860#10" to="-386113079" type="motorcycle"/>
    <trip id="mot2" depart="8.00" from="319453543#3" to="27952559#2" type="motorcycle"/>
    <trip id="mot3" depart="12.00" from="475370302" to="-229479573#3" type="motorcycle"/>
    <trip id="mot4" depart="16.00" from="122735178#3" to="-157423552#0" type="motorcycle"/>
    <trip id="mot5" depart="20.00" from="-345332044" to="245234796#1" type="motorcycle"/>
    <trip id="mot6" depart="24.00" from="-157141911" to="-28885076#1" type="motorcycle"/>
    <trip id="mot7" depart="28.00" from="27571474" to="249697140" type="motorcycle"/>
    <trip id="mot8" depart="32.00" from="-351479493#0" to="27558781" type="motorcycle"/>
    <trip id="mot9" depart="36.00" from="-4902371#0" to="-27571849#4" type="motorcycle"/>
    <trip id="mot10" depart="40.00" from="511817673" to="-4902441#1" type="motorcycle"/>
    <trip id="mot11" depart="44.00" from="466974177#2" to="27570958#6" type="motorcycle"/>
    <trip id="mot12" depart="48.00" from="409581860#4" to="345332034#1" type="motorcycle"/>
    <trip id="mot13" depart="52.00" from="245234770#10" to="549941138#0" type="motorcycle"/>
    <trip id="mot14" depart="56.00" from="-518473679" to="250338892" type="motorcycle"/>
    <trip id="mot15" depart="60.00" from="4523223#4" to="27571495#8" type="motorcycle"/>
    <trip id="mot16" depart="64.00" from="4727809#0" to="27467658#2" type="motorcycle"/>
    <trip id="mot17" depart="68.00" from="27951329#0" to="-157483952#2" type="motorcycle"/>
    <trip id="mot18" depart="72.00" from="-386114158" to="-473691604#0" type="motorcycle"/>
    <trip id="mot19" depart="76.00" from="-221893264" to="-386114193" type="motorcycle"/>
    <trip id="mot20" depart="80.00" from="-248521868#3" to="-4727809#9" type="motorcycle"/>
    <trip id="mot21" depart="84.00" from="-494424630" to="-345328739" type="motorcycle"/>
    <trip id="mot22" depart="88.00" from="-386278915" to="501498998" type="motorcycle"/>
    <trip id="mot23" depart="92.00" from="-27951311" to="345332018#1" type="motorcycle"/>
    <trip id="mot24" depart="96.00" from="-27572173#1" to="122735168#0" type="motorcycle"/>
    <trip id="mot25" depart="100.00" from="550860119#2" to="27709338" type="motorcycle"/>
    <trip id="mot26" depart="104.00" from="245546863" to="28788374#0" type="motorcycle"/>
    <trip id="mot27" depart="108.00" from="-386114159#2" to="-157483505#0" type="motorcycle"/>
    <trip id="mot28" depart="112.00" from="-473691606#1" to="-466974177#1" type="motorcycle"/>
    <trip id="mot29" depart="116.00" from="473679814#2" to="-490134197#0" type="motorcycle"/>
    <trip id="mot30" depart="120.00" from="27571484#4" to="143331551#3" type="motorcycle"/>
    <trip id="mot31" depart="124.00" from="490134197#0" to="179109642#0" type="motorcycle"/>
    <trip id="mot32" depart="128.00" from="245553663#3" to="-462566123" type="motorcycle"/>
    <trip id="mot33" depart="132.00" from="249697090#4" to="4902369#0" type="motorcycle"/>
    <trip id="mot34" depart="136.00" from="-88497949#2" to="-348346368#1" type="motorcycle"/>
    <trip id="mot35" depart="140.00" from="96097829#1" to="245234846" type="motorcycle"/>
    <trip id="mot36" depart="144.00" from="-24184169#2" to="-157642252" type="motorcycle"/>
    <trip id="mot37" depart="148.00" from="-255915645" to="27571853" type="motorcycle"/>
    <trip id="mot38" depart="152.00" from="-168645107#1" to="122735174#0" type="motorcycle"/>
    <trip id="mot39" depart="156.00" from="549928642#2" to="473679823" type="motorcycle"/>
    <trip id="mot40" depart="160.00" from="-122735161" to="344144147#0" type="motorcycle"/>
    <trip id="mot41" depart="164.00" from="27572175" to="248870340#1" type="motorcycle"/>
    <trip id="mot42" depart="168.00" from="-27016573#1" to="161392064#3" type="motorcycle"/>
    <trip id="mot43" depart="172.00" from="157483949#0" to="519339286#2" type="motorcycle"/>
    <trip id="mot44" depart="176.00" from="168645111#1" to="-27951332#1" type="motorcycle"/>
    <trip id="mot45" depart="180.00" from="-4727807#3" to="27572173#0" type="motorcycle"/>
    <trip id="mot46" depart="184.00" from="27078594" to="-27571848#2" type="motorcycle"/>
    <trip id="mot47" depart="188.00" from="345328749#0" to="249697087#2" type="motorcycle"/>
    <trip id="mot48" depart="192.00" from="386114160#4" to="248521870#0" type="motorcycle"/>
    <trip id="mot49" depart="196.00" from="-10785858#0" to="-4902402" type="motorcycle"/>
    <trip id="mot50" depart="200.00" from="-122735202#0" to="4902450#4" type="motorcycle"/>
    <trip id="mot51" depart="204.00" from="-473679814#3" to="-157643736#0" type="motorcycle"/>
    <trip id="mot52" depart="208.00" from="473679816#1" to="511817675" type="motorcycle"/>
    <trip id="mot53" depart="212.00" from="345332022" to="-27558754#2" type="motorcycle"/>
    <trip id="mot54" depart="216.00" from="161389764" to="250338817#8" type="motorcycle"/>
    <trip id="mot55" depart="220.00" from="122735182#2" to="-345328749#0" type="motorcycle"/>
    <trip id="mot56" depart="224.00" from="245234770#6" to="345332035" type="motorcycle"/>
    <trip id="mot57" depart="228.00" from="-312299088#2" to="-487551846#0" type="motorcycle"/>
    <trip id="mot58" depart="232.00" from="8154723" to="27951304#0" type="motorcycle"/>
    <trip id="mot59" depart="236.00" from="-4877455#0" to="27558755" type="motorcycle"/>
    <trip id="mot60" depart="240.00" from="-221893210#1" to="27572154#1" type="motorcycle"/>
    <trip id="mot61" depart="244.00" from="-386114169" to="27951333#0" type="motorcycle"/>
    <trip id="mot62" depart="248.00" from="-345328749#0" to="-27558788#0" type="motorcycle"/>
    <trip id="mot63" depart="252.00" from="4902431" to="27218102#0" type="motorcycle"/>
    <trip id="mot64" depart="256.00" from="409581860#5" to="-28788381#2" type="motorcycle"/>
    <trip id="mot65" depart="260.00" from="-245234795#4" to="161389758" type="motorcycle"/>
    <trip id="mot66" depart="264.00" from="122735186#0" to="221893217#1" type="motorcycle"/>
    <trip id="mot67" depart="268.00" from="28885055#1" to="27951347#1" type="motorcycle"/>
    <trip id="mot68" depart="272.00" from="550753286" to="-245234850#0" type="motorcycle"/>
    <trip id="mot69" depart="276.00" from="10785858#2" to="-4902450#2" type="motorcycle"/>
    <trip id="mot70" depart="280.00" from="4727809#0" to="-39368524#0" type="motorcycle"/>
    <trip id="mot71" depart="284.00" from="-28788381#0" to="162154116#1" type="motorcycle"/>
    <trip id="mot72" depart="288.00" from="122735178#3" to="-4727898#0" type="motorcycle"/>
    <trip id="mot73" depart="292.00" from="-386114196" to="4902440#3" type="motorcycle"/>
    <trip id="mot74" depart="296.00" from="157423552#2" to="473684641#1" type="motorcycle"/>
    <trip id="mot75" depart="300.00" from="549345534" to="4902445" type="motorcycle"/>
    <trip id="mot76" depart="304.00" from="466974184" to="-27572167" type="motorcycle"/>
    <trip id="mot77" depart="308.00" from="162154103#3" to="-345332018#0" type="motorcycle"/>
    <trip id="mot78" depart="312.00" from="-96494351#1" to="-157643736#1" type="motorcycle"/>
    <trip id="mot79" depart="316.00" from="157483949#2" to="157642287#4" type="motorcycle"/>
    <trip id="mot80" depart="320.00" from="518473672" to="88497949#1" type="motorcycle"/>
    <trip id="mot81" depart="324.00" from="245546856#1" to="344113927" type="motorcycle"/>
    <trip id="mot82" depart="328.00" from="-27571860" to="-4770190#3" type="motorcycle"/>
    <trip id="mot83" depart="332.00" from="548651990#1" to="27490671" type="motorcycle"/>
    <trip id="mot84" depart="336.00" from="245234785" to="386114165" type="motorcycle"/>
    <trip id="mot85" depart="340.00" from="-162043157#1" to="27558746#2" type="motorcycle"/>
    <trip id="mot86" depart="344.00" from="475370191#0" to="-39368522#0" type="motorcycle"/>
    <trip id="mot87" depart="348.00" from="122735174#0" to="27558746#1" type="motorcycle"/>
    <trip id="mot88" depart="352.00" from="229479592" to="496360758" type="motorcycle"/>
    <trip id="mot89" depart="356.00" from="-330063699" to="341224415#0" type="motorcycle"/>
    <trip id="mot90" depart="360.00" from="27571854#1" to="-4770191#9" type="motorcycle"/>
    <trip id="mot91" depart="364.00" from="-473691607" to="386114176#1" type="motorcycle"/>
    <trip id="mot92" depart="368.00" from="-221893215#1" to="17550953" type="motorcycle"/>
    <trip id="mot93" depart="372.00" from="96494347#0" to="88497949#2" type="motorcycle"/>
    <trip id="mot94" depart="376.00" from="-221893217#0" to="-345332014" type="motorcycle"/>
    <trip id="mot95" depart="380.00" from="473684643" to="4770191#9" type="motorcycle"/>
    <trip id="mot96" depart="384.00" from="-490522132" to="-27571852" type="motorcycle"/>
    <trip id="mot97" depart="388.00" from="4559074#5" to="320070573#3" type="motorcycle"/>
    <trip id="mot98" depart="392.00" from="27218101" to="550867442#2" type="motorcycle"/>
    <trip id="mot99" depart="396.00" from="-27571470#1" to="-27078594" type="motorcycle"/>
    <trip id="mot100" depart="400.00" from="-39368522#2" to="27571470#0" type="motorcycle"/>
    <trip id="mot101" depart="404.00" from="27558788#1" to="-466974160#0" type="motorcycle"/>
    <trip id="mot102" depart="408.00" from="162154108#4" to="4902391" type="motorcycle"/>
    <trip id="mot103" depart="412.00" from="466974173#1" to="-244074953#0" type="motorcycle"/>
    <trip id="mot104" depart="416.00" from="122735186#0" to="-4727809#4" type="motorcycle"/>
    <trip id="mot105" depart="420.00" from="-10787528" to="386114787" type="motorcycle"/>
    <trip id="mot106" depart="424.00" from="27558792#1" to="-458268603" type="motorcycle"/>
    <trip id="mot107" depart="428.00" from="320070573#6" to="250338884" type="motorcycle"/>
    <trip id="mot108" depart="432.00" from="-221893219#2" to="4770307#3" type="motorcycle"/>
    <trip id="mot109" depart="436.00" from="4774366" to="249870999#0" type="motorcycle"/>
    <trip id="mot110" depart="440.00" from="4559084" to="27558703" type="motorcycle"/>
    <trip id="mot111" depart="444.00" from="-27571849#0" to="-27558746#3" type="motorcycle"/>
    <trip id="mot112" depart="448.00" from="386278899" to="473679823" type="motorcycle"/>
    <trip id="mot113" depart="452.00" from="4770195#0" to="-345328741#0" type="motorcycle"/>
    <trip id="mot114" depart="456.00" from="-386114195" to="-248521901" type="motorcycle"/>
    <trip id="mot115" depart="460.00" from="386114184#1" to="4774365#1" type="motorcycle"/>
    <trip id="mot116" depart="464.00" from="122735130" to="27571846#2" type="motorcycle"/>
    <trip id="mot117" depart="468.00" from="-27571860" to="4902450#4" type="motorcycle"/>
    <trip id="mot118" depart="472.00" from="4727809#7" to="550712035" type="motorcycle"/>
    <trip id="mot119" depart="476.00" from="409594649" to="4770196#0" type="motorcycle"/>
    <trip id="mot120" depart="480.00" from="-143331551#7" to="386113076#4" type="motorcycle"/>
    <trip id="mot121" depart="484.00" from="-4774370#1" to="4902451#2" type="motorcycle"/>
    <trip id="mot122" depart="488.00" from="401262992#1" to="473691601#0" type="motorcycle"/>
    <trip id="mot123" depart="492.00" from="386114208" to="-250338881" type="motorcycle"/>
    <trip id="mot124" depart="496.00" from="4734476#0" to="473679814#4" type="motorcycle"/>
    <trip id="mot125" depart="500.00" from="-358457707#2" to="4559084" type="motorcycle"/>
    <trip id="mot126" depart="504.00" from="157642253" to="-4774366" type="motorcycle"/>
    <trip id="mot127" depart="508.00" from="-143331551#3" to="-28788387#0" type="motorcycle"/>
    <trip id="mot128" depart="512.00" from="-4770197" to="473691601#1" type="motorcycle"/>
    <trip id="mot129" depart="516.00" from="537405480#2" to="-4727898#0" type="motorcycle"/>
    <trip id="mot130" depart="520.00" from="27570528#4" to="157141911" type="motorcycle"/>
    <trip id="mot131" depart="524.00" from="550712036#0" to="248521923#2" type="motorcycle"/>
    <trip id="mot132" depart="528.00" from="549928642#0" to="-27951332#0" type="motorcycle"/>
    <trip id="mot133" depart="532.00" from="522952937" to="-466974167#0" type="motorcycle"/>
    <trip id="mot134" depart="536.00" from="-252482715#5" to="161392064#3" type="motorcycle"/>
    <trip id="mot135" depart="540.00" from="28885055#0" to="-4877454" type="motorcycle"/>
    <trip id="mot136" depart="544.00" from="27016563#1" to="245546843#0" type="motorcycle"/>
    <trip id="mot137" depart="548.00" from="-528715329" to="27467655#3" type="motorcycle"/>
    <trip id="mot138" depart="552.00" from="-386114779#0" to="327764058" type="motorcycle"/>
    <trip id="mot139" depart="556.00" from="-10785858#4" to="4902444" type="motorcycle"/>
    <trip id="mot140" depart="560.00" from="245234770#4" to="344113928" type="motorcycle"/>
    <trip id="mot141" depart="564.00" from="-4902447" to="-168645109#0" type="motorcycle"/>
    <trip id="mot142" depart="568.00" from="27571846#1" to="-4902423" type="motorcycle"/>
    <trip id="mot143" depart="572.00" from="-473691604#1" to="4727809#9" type="motorcycle"/>
    <trip id="mot144" depart="576.00" from="28788370#0" to="-4770192" type="motorcycle"/>
    <trip id="mot145" depart="580.00" from="10785858#2" to="-4770189#0" type="motorcycle"/>
    <trip id="mot146" depart="584.00" from="-27558782" to="157642274#2" type="motorcycle"/>
    <trip id="mot147" depart="588.00" from="4902440#1" to="28031869#1" type="motorcycle"/>
    <trip id="mot148" depart="592.00" from="4774365#2" to="27571492#0" type="motorcycle"/>
    <trip id="mot149" depart="596.00" from="-4727809#2" to="250338817#2" type="motorcycle"/>
    <trip id="mot150" depart="600.00" from="-10785858#0" to="-473684643" type="motorcycle"/>
    <trip id="mot151" depart="604.00" from="122735204#0" to="27490672#2" type="motorcycle"/>
    <trip id="mot152" depart="608.00" from="27571484#0" to="221893210#1" type="motorcycle"/>
    <trip id="mot153" depart="612.00" from="157423552#0" to="-345332018#0" type="motorcycle"/>
    <trip id="mot154" depart="616.00" from="161389758" to="4902374#1" type="motorcycle"/>
    <trip id="mot155" depart="620.00" from="27558786" to="-4902433#8" type="motorcycle"/>
    <trip id="mot156" depart="624.00" from="426799412#0" to="386114176#1" type="motorcycle"/>
    <trip id="mot157" depart="628.00" from="27571855#2" to="-386114159#2" type="motorcycle"/>
    <trip id="mot158" depart="632.00" from="-28885076#1" to="-143331551#3" type="motorcycle"/>
    <trip id="mot159" depart="636.00" from="-386114189" to="221893271#1" type="motorcycle"/>
    <trip id="mot160" depart="640.00" from="466974189" to="-178915290" type="motorcycle"/>
    <trip id="mot161" depart="644.00" from="332399555" to="386114783" type="motorcycle"/>
    <trip id="mot162" depart="648.00" from="-27951326#0" to="523058452" type="motorcycle"/>
    <trip id="mot163" depart="652.00" from="221893285#1" to="-157642287#2" type="motorcycle"/>
    <trip id="mot164" depart="656.00" from="157483950#2" to="427821230#1" type="motorcycle"/>
    <trip id="mot165" depart="660.00" from="27571849#1" to="550873590" type="motorcycle"/>
    <trip id="mot166" depart="664.00" from="252482711#1" to="518473677" type="motorcycle"/>
    <trip id="mot167" depart="668.00" from="28788368#0" to="245234795#4" type="motorcycle"/>
    <trip id="mot168" depart="672.00" from="4523238" to="250338817#2" type="motorcycle"/>
    <trip id="mot169" depart="676.00" from="161389762" to="-425383186" type="motorcycle"/>
    <trip id="mot170" depart="680.00" from="-386114191" to="27572165#1" type="motorcycle"/>
    <trip id="mot171" depart="684.00" from="345332022" to="245553663#5" type="motorcycle"/>
    <trip id="mot172" depart="688.00" from="27558749#0" to="-4727809#1" type="motorcycle"/>
    <trip id="mot173" depart="692.00" from="-221893235" to="-473679823" type="motorcycle"/>
    <trip id="mot174" depart="696.00" from="-386579934" to="-4902377#2" type="motorcycle"/>
    <trip id="mot175" depart="700.00" from="245234770#9" to="-27570952" type="motorcycle"/>
    <trip id="mot176" depart="704.00" from="-386114160#5" to="28885055#0" type="motorcycle"/>
    <trip id="mot177" depart="708.00" from="27951331" to="-168645103#0" type="motorcycle"/>
    <trip id="mot178" depart="712.00" from="122735165" to="-344113928" type="motorcycle"/>
    <trip id="mot179" depart="716.00" from="122735176#0" to="4902389#1" type="motorcycle"/>
    <trip id="mot180" depart="720.00" from="4727807#0" to="386114209" type="motorcycle"/>
    <trip id="mot181" depart="724.00" from="-522933336" to="-122735154" type="motorcycle"/>
    <trip id="mot182" depart="728.00" from="47221486#2" to="519339286#1" type="motorcycle"/>
    <trip id="mot183" depart="732.00" from="122735173" to="386114164" type="motorcycle"/>
    <trip id="mot184" depart="736.00" from="245234799#4" to="27570958#5" type="motorcycle"/>
    <trip id="mot185" depart="740.00" from="143331551#2" to="-157423551#1" type="motorcycle"/>
    <trip id="mot186" depart="744.00" from="157643731#1" to="-27558754#0" type="motorcycle"/>
    <trip id="mot187" depart="748.00" from="27490679#2" to="-157423546#0" type="motorcycle"/>
    <trip id="mot188" depart="752.00" from="-551160580" to="255915658#0" type="motorcycle"/>
    <trip id="mot189" depart="756.00" from="-157141911" to="27840838#2" type="motorcycle"/>
    <trip id="mot190" depart="760.00" from="-27571482" to="201637618#1" type="motorcycle"/>
    <trip id="mot191" depart="764.00" from="-157642291" to="122735167" type="motorcycle"/>
    <trip id="mot192" depart="768.00" from="345328741#1" to="122735167" type="motorcycle"/>
    <trip id="mot193" depart="772.00" from="340955664" to="466974186" type="motorcycle"/>
    <trip id="mot194" depart="776.00" from="-386114208" to="-221893235" type="motorcycle"/>
    <trip id="mot195" depart="780.00" from="96494363" to="-531846850" type="motorcycle"/>
    <trip id="mot196" depart="784.00" from="27571476#0" to="386579153" type="motorcycle"/>
    <trip id="mot197" depart="788.00" from="27571479#1" to="386114186#1" type="motorcycle"/>
    <trip id="mot198" depart="792.00" from="501499002#3" to="-312299087#0" type="motorcycle"/>
    <trip id="mot199" depart="796.00" from="-122735205" to="-27571848#0" type="motorcycle"/>
    <trip id="mot200" depart="800.00" from="-27558757" to="27951333#1" type="motorcycle"/>
    <trip id="mot201" depart="804.00" from="245560600#1" to="-345332044" type="motorcycle"/>
    <trip id="mot202" depart="808.00" from="27951321#1" to="386114778#1" type="motorcycle"/>
    <trip id="mot203" depart="812.00" from="-27840840#2" to="27571477#1" type="motorcycle"/>
    <trip id="mot204" depart="816.00" from="328584567#0" to="-27016584" type="motorcycle"/>
    <trip id="mot205" depart="820.00" from="426799412#3" to="549928635" type="motorcycle"/>
    <trip id="mot206" depart="824.00" from="-252482715#4" to="-157422236" type="motorcycle"/>
    <trip id="mot207" depart="828.00" from="-473691590#0" to="28031869#1" type="motorcycle"/>
    <trip id="mot208" depart="832.00" from="518473675" to="143331551#6" type="motorcycle"/>
    <trip id="mot209" depart="836.00" from="28031869#1" to="-221893210#0" type="motorcycle"/>
    <trip id="mot210" depart="840.00" from="-248521917#0" to="386114790" type="motorcycle"/>
    <trip id="mot211" depart="844.00" from="466991750#1" to="27570956#0" type="motorcycle"/>
    <trip id="mot212" depart="848.00" from="-27490674" to="550757841" type="motorcycle"/>
    <trip id="mot213" depart="852.00" from="386114192#0" to="-523054531" type="motorcycle"/>
    <trip id="mot214" depart="856.00" from="221888674#0" to="-501500451" type="motorcycle"/>
    <trip id="mot215" depart="860.00" from="466974189" to="463947013#4" type="motorcycle"/>
    <trip id="mot216" depart="864.00" from="-250299199" to="53172877#2" type="motorcycle"/>
    <trip id="mot217" depart="868.00" from="27558789#2" to="466974173#1" type="motorcycle"/>
    <trip id="mot218" depart="872.00" from="27951333#0" to="161392065" type="motorcycle"/>
    <trip id="mot219" depart="876.00" from="312299088#2" to="549928642#2" type="motorcycle"/>
    <trip id="mot220" depart="880.00" from="-386579161" to="443606341#0" type="motorcycle"/>
    <trip id="mot221" depart="884.00" from="245234770#3" to="229479589#1" type="motorcycle"/>
    <trip id="mot222" depart="888.00" from="-386278944#1" to="4734475#1" type="motorcycle"/>
    <trip id="mot223" depart="892.00" from="4523238" to="-229479573#2" type="motorcycle"/>
    <trip id="mot224" depart="896.00" from="473691590#0" to="-386278913#0" type="motorcycle"/>
    <trip id="mot225" depart="900.00" from="157643727" to="27571483#2" type="motorcycle"/>
    <trip id="mot226" depart="904.00" from="-518474788" to="-157423551#0" type="motorcycle"/>
    <trip id="mot227" depart="908.00" from="466991754" to="-27952558" type="motorcycle"/>
    <trip id="mot228" depart="912.00" from="-345328739" to="422062696#0" type="motorcycle"/>
    <trip id="mot229" depart="916.00" from="-4902371#0" to="4770194" type="motorcycle"/>
    <trip id="mot230" depart="920.00" from="27951323#0" to="-4727809#3" type="motorcycle"/>
    <trip id="mot231" depart="924.00" from="-122735160#0" to="518473674" type="motorcycle"/>
    <trip id="mot232" depart="928.00" from="-229479573#4" to="344144081" type="motorcycle"/>
    <trip id="mot233" depart="932.00" from="162154108#4" to="386114190" type="motorcycle"/>
    <trip id="mot234" depart="936.00" from="27951304#1" to="27840841#2" type="motorcycle"/>
    <trip id="mot235" depart="940.00" from="162154114#1" to="409581860#4" type="motorcycle"/>
    <trip id="mot236" depart="944.00" from="-244074953#2" to="-386113076#1" type="motorcycle"/>
    <trip id="mot237" depart="948.00" from="27951304#5" to="-4774367#0" type="motorcycle"/>
    <trip id="mot238" depart="952.00" from="249697086" to="221893264" type="motorcycle"/>
    <trip id="mot239" depart="956.00" from="24184195#2" to="157643730#1" type="motorcycle"/>
    <trip id="mot240" depart="960.00" from="27951326#1" to="-47221486#1" type="motorcycle"/>
    <trip id="mot241" depart="964.00" from="-28788382#5" to="-27218104#2" type="motorcycle"/>
    <trip id="mot242" depart="968.00" from="245234770#0" to="386114196" type="motorcycle"/>
    <trip id="mot243" depart="972.00" from="-28788365#2" to="-345332040" type="motorcycle"/>
    <trip id="mot244" depart="976.00" from="162154102#4" to="345328738" type="motorcycle"/>
    <trip id="mot245" depart="980.00" from="-28788387#1" to="-386114184#0" type="motorcycle"/>
    <trip id="mot246" depart="984.00" from="244074953#0" to="-4727809#0" type="motorcycle"/>
    <trip id="mot247" depart="988.00" from="549939606#2" to="252482711#3" type="motorcycle"/>
    <trip id="mot248" depart="992.00" from="27951313" to="-27558694" type="motorcycle"/>
    <trip id="mot249" depart="996.00" from="4727925#1" to="24184195#1" type="motorcycle"/>
    <trip id="mot250" depart="1000.00" from="4734487" to="27218104#3" type="motorcycle"/>
    <trip id="mot251" depart="1004.00" from="157643733#1" to="162043157#0" type="motorcycle"/>
    <trip id="mot252" depart="1008.00" from="4902441#0" to="229479522" type="motorcycle"/>
    <trip id="mot253" depart="1012.00" from="438155977#0" to="157423546#1" type="motorcycle"/>
    <trip id="mot254" depart="1016.00" from="-221893217#4" to="27571857" type="motorcycle"/>
    <trip id="mot255" depart="1020.00" from="-157643732#1" to="-27571495#6" type="motorcycle"/>
    <trip id="mot256" depart="1024.00" from="245553663#8" to="-4774365#0" type="motorcycle"/>
    <trip id="mot257" depart="1028.00" from="345332018#0" to="27571476#0" type="motorcycle"/>
    <trip id="mot258" depart="1032.00" from="229479592" to="162154117#2" type="motorcycle"/>
    <trip id="mot259" depart="1036.00" from="157423552#1" to="473679816#2" type="motorcycle"/>
    <trip id="mot260" depart="1040.00" from="27490672#2" to="27571483#0" type="motorcycle"/>
    <trip id="mot261" depart="1044.00" from="320070573#3" to="518473673" type="motorcycle"/>
    <trip id="mot262" depart="1048.00" from="-27951322#2" to="-221888674#1" type="motorcycle"/>
    <trip id="mot263" depart="1052.00" from="-10786728#1" to="162154117#2" type="motorcycle"/>
    <trip id="mot264" depart="1056.00" from="-386114160#5" to="327764054#0" type="motorcycle"/>
    <trip id="mot265" depart="1060.00" from="27951327#0" to="168645107#1" type="motorcycle"/>
    <trip id="mot266" depart="1064.00" from="386114775#1" to="27571850#0" type="motorcycle"/>
    <trip id="mot267" depart="1068.00" from="27571495#2" to="494424630" type="motorcycle"/>
    <trip id="mot268" depart="1072.00" from="27571469#0" to="4902399" type="motorcycle"/>
    <trip id="mot269" depart="1076.00" from="443606341#1" to="-168645111#2" type="motorcycle"/>
    <trip id="mot270" depart="1080.00" from="329013842" to="27217413" type="motorcycle"/>
    <trip id="mot271" depart="1084.00" from="-466974160#1" to="-27490679#2" type="motorcycle"/>
    <trip id="mot272" depart="1088.00" from="27951279#0" to="319453543#0" type="motorcycle"/>
    <trip id="mot273" depart="1092.00" from="4902447" to="245234777" type="motorcycle"/>
    <trip id="mot274" depart="1096.00" from="168645103#1" to="-221893219#1" type="motorcycle"/>
    <trip id="mot275" depart="1100.00" from="-157483950#1" to="161389762" type="motorcycle"/>
    <trip id="mot276" depart="1104.00" from="-4770190#4" to="-409581860#11" type="motorcycle"/>
    <trip id="mot277" depart="1108.00" from="-24187047#0" to="537405480#1" type="motorcycle"/>
    <trip id="mot278" depart="1112.00" from="4560178#0" to="27467650#1" type="motorcycle"/>
    <trip id="mot279" depart="1116.00" from="27571855#0" to="-466991750#0" type="motorcycle"/>
    <trip id="mot280" depart="1120.00" from="157643736#1" to="27951304#5" type="motorcycle"/>
    <trip id="mot281" depart="1124.00" from="4902369#0" to="-27952555" type="motorcycle"/>
    <trip id="mot282" depart="1128.00" from="249697114#1" to="27572160" type="motorcycle"/>
    <trip id="mot283" depart="1132.00" from="162154116#0" to="-24184169#1" type="motorcycle"/>
    <trip id="mot284" depart="1136.00" from="27571850#4" to="473679814#1" type="motorcycle"/>
    <trip id="mot285" depart="1140.00" from="-466974160#0" to="511817673" type="motorcycle"/>
    <trip id="mot286" depart="1144.00" from="422062691" to="250338821#0" type="motorcycle"/>
    <trip id="mot287" depart="1148.00" from="245234795#0" to="157483950#2" type="motorcycle"/>
    <trip id="mot288" depart="1152.00" from="-28788372" to="-96494363" type="motorcycle"/>
    <trip id="mot289" depart="1156.00" from="344144147#3" to="27571850#1" type="motorcycle"/>
    <trip id="mot290" depart="1160.00" from="345328737#2" to="-340955664" type="motorcycle"/>
    <trip id="mot291" depart="1164.00" from="157422557#0" to="312299088#2" type="motorcycle"/>
    <trip id="mot292" depart="1168.00" from="27016584" to="-386114785" type="motorcycle"/>
    <trip id="mot293" depart="1172.00" from="-27572160" to="250338875" type="motorcycle"/>
    <trip id="mot294" depart="1176.00" from="70952240" to="4902416#2" type="motorcycle"/>
    <trip id="mot295" depart="1180.00" from="4559074#0" to="245234770#3" type="motorcycle"/>
    <trip id="mot296" depart="1184.00" from="-39368524#0" to="466991761" type="motorcycle"/>
    <trip id="mot297" depart="1188.00" from="550712033" to="-386278913#0" type="motorcycle"/>
    <trip id="mot298" depart="1192.00" from="245546843#0" to="122735178#4" type="motorcycle"/>
    <trip id="mot299" depart="1196.00" from="4902378#1" to="245234801#0" type="motorcycle"/>
    <trip id="mot300" depart="1200.00" from="473684641#0" to="473691601#0" type="motorcycle"/>
    <trip id="mot301" depart="1204.00" from="-409581860#2" to="402922224" type="motorcycle"/>
    <trip id="mot302" depart="1208.00" from="221893210#0" to="463947013#0-AddedOnRampEdge" type="motorcycle"/>
    <trip id="mot303" depart="1212.00" from="-422062696#1" to="-4770191#5" type="motorcycle"/>
    <trip id="mot304" depart="1216.00" from="249697143" to="96494347#1" type="motorcycle"/>
    <trip id="mot305" depart="1220.00" from="162154111" to="-27571495#3" type="motorcycle"/>
    <trip id="mot306" depart="1224.00" from="245234770#4" to="-511815820" type="motorcycle"/>
    <trip id="mot307" depart="1228.00" from="245546843#2" to="249697138" type="motorcycle"/>
    <trip id="mot308" depart="1232.00" from="157483950#0" to="-4902394#1" type="motorcycle"/>
    <trip id="mot309" depart="1236.00" from="-28788377#0" to="312299088#0" type="motorcycle"/>
    <trip id="mot310" depart="1240.00" from="248521870#3" to="-386114194" type="motorcycle"/>
    <trip id="mot311" depart="1244.00" from="386113079" to="-157483950#2" type="motorcycle"/>
    <trip id="mot312" depart="1248.00" from="327764057#1" to="324535454#0" type="motorcycle"/>
    <trip id="mot313" depart="1252.00" from="418990606" to="122735192" type="motorcycle"/>
    <trip id="mot314" depart="1256.00" from="27571746" to="463947013#1" type="motorcycle"/>
    <trip id="mot315" depart="1260.00" from="550712035" to="244074953#3" type="motorcycle"/>
    <trip id="mot316" depart="1264.00" from="-157483942#8" to="245234784#1" type="motorcycle"/>
    <trip id="mot317" depart="1268.00" from="250338817#3" to="473691610" type="motorcycle"/>
    <trip id="mot318" depart="1272.00" from="473679810#0" to="162043156" type="motorcycle"/>
    <trip id="mot319" depart="1276.00" from="229481762#4" to="168645111#1" type="motorcycle"/>
    <trip id="mot320" depart="1280.00" from="28788381#0" to="157483942#8" type="motorcycle"/>