<?xml version="1.0" encoding="UTF-8"?>

<!-- generated on Thu Jan  4 15:02:28 2018 by SUMO netconvert Version 0.30.0
<?xml version="1.0" encoding="UTF-8"?>

<configuration xmlns:xsi="http://www.w3.org/2001/XMLSchema-instance" xsi:noNamespaceSchemaLocation="http://sumo.dlr.de/xsd/netconvertConfiguration.xsd">

    <input>
        <type-files value="/media/jefferson/Dados/workspace/sumo-0.30.0/data/typemap/osmNetconvert.typ.xml,/media/jefferson/Dados/workspace/sumo-0.30.0/data/typemap/osmNetconvertUrbanBrSP.typ.xml,/media/jefferson/Dados/workspace/sumo-0.30.0/data/typemap/osmNetconvertPedestrians.typ.xml"/>
        <osm-files value="/media/jefferson/Dados/workspace/GoodsTracker/vanet/sp/sp_bbox.osm.xml"/>
    </input>

    <output>
        <output-file value="/media/jefferson/Dados/workspace/GoodsTracker/vanet/sp/sp.net.xml"/>
        <plain-output-prefix value="/media/jefferson/Dados/workspace/GoodsTracker/vanet/sp/sp"/>
        <output.street-names value="true"/>
        <output.original-names value="true"/>
    </output>

    <projection>
        <proj.utm value="true"/>
    </projection>

    <tls_building>
        <tls.discard-loaded value="false"/>
        <tls.discard-simple value="false"/>
        <tls.join value="true"/>
        <tls.join-dist value="40"/>
        <tls.guess-signals value="false"/>
    </tls_building>

    <ramp_guessing>
        <ramps.guess value="true"/>
    </ramp_guessing>

    <processing>
        <geometry.remove value="true"/>
        <roundabouts.guess value="false"/>
        <junctions.join value="true"/>
        <junctions.join-dist value="5"/>
        <junctions.corner-detail value="5"/>
        <sidewalks.guess value="false"/>
        <crossings.guess value="true"/>
    </processing>

    <building_defaults>
        <default.junctions.radius value="1"/>
    </building_defaults>

    <report>
        <verbose value="true"/>
    </report>

</configuration>
-->

<nodes version="0.27" xmlns:xsi="http://www.w3.org/2001/XMLSchema-instance" xsi:noNamespaceSchemaLocation="http://sumo.dlr.de/xsd/nodes_file.xsd">
    <location netOffset="-320521.10,2621997.52" convBoundary="0.00,0.00,7678.80,17011.02" origBoundary="-46.759682,-23.699719,-46.685046,-23.545569" projParameter="+proj=utm +zone=23 +ellps=WGS84 +datum=WGS84 +units=m +no_defs"/>

    <node id="1011363288" x="3099.33" y="5355.70" type="dead_end" radius="1.00"/>
    <node id="1370703805" x="3468.48" y="6105.27" type="dead_end" radius="1.00"/>
    <node id="161389762-AddedOnRampNode" x="3174.42" y="5939.29" type="priority" radius="1.00"/>
    <node id="1699011837" x="1482.81" y="6581.97" type="traffic_light" tl="1699011837" radius="1.00"/>
    <node id="1699011854" x="1482.19" y="6570.98" type="traffic_light" tl="1699011854" radius="1.00"/>
    <node id="1733638495" x="1893.85" y="6754.86" type="traffic_light" tl="joinedS_0" radius="1.00"/>
    <node id="1733638496" x="1875.36" y="6746.23" type="priority" radius="1.00"/>
    <node id="1733638500" x="1907.96" y="6740.63" type="traffic_light" tl="joinedS_0" radius="1.00"/>
    <node id="1733638501" x="1881.93" y="6740.06" type="traffic_light" tl="joinedS_0" radius="1.00"/>
    <node id="1733638503" x="1905.62" y="6732.29" type="traffic_light" tl="joinedS_0" radius="1.00"/>
    <node id="1733638547" x="2924.48" y="6068.64" type="priority" radius="1.00"/>
    <node id="1733638554" x="2991.08" y="6050.14" type="priority" radius="1.00"/>
    <node id="1733638557" x="2891.33" y="6054.89" type="priority" radius="1.00"/>
    <node id="1733638568" x="2961.44" y="6026.06" type="priority" radius="1.00"/>
    <node id="1733638570" x="2950.92" y="6014.06" type="priority" radius="1.00"/>
    <node id="1733638575" x="2998.14" y="5999.97" type="priority" radius="1.00"/>
    <node id="1733638586" x="2992.26" y="5976.03" type="priority" radius="1.00"/>
    <node id="1733690271" x="1838.00" y="6312.91" type="priority" radius="1.00"/>
    <node id="1733690277" x="2294.16" y="6242.46" type="priority" radius="1.00"/>
    <node id="1733690281" x="2509.43" y="6213.25" type="traffic_light" tl="joinedS_3" radius="1.00"/>
    <node id="1733690285" x="2496.94" y="6193.75" type="traffic_light" tl="joinedS_3" radius="1.00"/>
    <node id="1733690302" x="2532.18" y="6148.59" type="priority" radius="1.00"/>
    <node id="1733690331" x="3121.58" y="6087.64" type="priority" radius="1.00"/>
    <node id="1733690338" x="2871.95" y="6095.65" type="priority" radius="1.00"/>
    <node id="1733690359" x="3026.75" y="5953.05" type="priority" radius="1.00"/>
    <node id="1733690362" x="2990.23" y="5880.16" type="priority" radius="1.00"/>
    <node id="1733690363" x="2999.89" y="5875.57" type="priority" radius="1.00"/>
    <node id="1733690367" x="2952.58" y="5800.72" type="priority" radius="1.00"/>
    <node id="1733690370" x="2858.84" y="5684.03" type="traffic_light" tl="1733690370" radius="1.00"/>
    <node id="1733690371" x="2866.32" y="5678.63" type="traffic_light" tl="1733690371" radius="1.00"/>
    <node id="1733690378" x="2794.57" y="5565.13" type="dead_end" radius="1.00"/>
    <node id="1739882086" x="2759.23" y="6556.23" type="priority" radius="1.00"/>
    <node id="1739882091" x="2816.23" y="6479.23" type="priority" radius="1.00"/>
    <node id="1739882110" x="2846.86" y="6232.07" type="priority" radius="1.00"/>
    <node id="1740889541" x="2889.77" y="7082.95" type="priority" radius="1.00"/>
    <node id="1740889554" x="3180.95" y="7034.08" type="priority" radius="1.00"/>
    <node id="1740889595" x="3227.35" y="6907.35" type="dead_end" radius="1.00"/>
    <node id="1740889619" x="3197.22" y="6865.86" type="right_before_left" radius="1.00"/>
    <node id="181763122" x="3.15" y="5394.49" type="dead_end" radius="1.00"/>
    <node id="181763161" x="2639.44" y="6106.34" type="priority" radius="1.00"/>
    <node id="181763197" x="4763.85" y="4930.29" type="dead_end" radius="1.00"/>
    <node id="1894508462" x="2237.50" y="6166.08" type="priority" radius="1.00"/>
    <node id="1894508463" x="2096.69" y="5805.73" type="priority" radius="1.00"/>
    <node id="1894508464" x="2329.25" y="5935.76" type="priority" radius="1.00"/>
    <node id="2308756830" x="2583.37" y="5933.39" type="priority" radius="1.00"/>
    <node id="2308756833" x="2595.86" y="5925.97" type="priority" radius="1.00"/>
    <node id="2308756835" x="2550.75" y="5882.56" type="priority" radius="1.00"/>
    <node id="2308756838" x="2571.85" y="5861.32" type="priority" radius="1.00"/>
    <node id="2308756841" x="2678.82" y="5856.57" type="priority" radius="1.00"/>
    <node id="2308756842" x="2535.49" y="5820.11" type="priority" radius="1.00"/>
    <node id="2308756843" x="2651.95" y="5816.23" type="priority" radius="1.00"/>
    <node id="2308756848" x="2470.72" y="5756.29" type="priority" radius="1.00"/>
    <node id="2308756850" x="2615.93" y="5755.19" type="priority" radius="1.00"/>
    <node id="2308756855" x="2588.09" y="5701.96" type="priority" radius="1.00"/>
    <node id="247833371#1-AddedOnRampNode" x="3087.41" y="6023.36" type="priority" radius="1.00"/>
    <node id="25675360" x="3594.82" y="6791.42" type="dead_end" radius="1.00"/>
    <node id="25675378" x="3416.31" y="6558.24" type="priority" radius="1.00"/>
    <node id="25675465" x="3307.73" y="6382.21" type="priority" radius="1.00"/>
    <node id="25675494" x="3615.00" y="6432.84" type="dead_end" radius="1.00"/>
    <node id="25675561" x="3289.87" y="6102.56" type="priority" radius="1.00"/>
    <node id="25675569" x="3180.00" y="6120.01" type="priority" radius="1.00"/>
    <node id="25675577" x="3237.10" y="6083.57" type="priority" radius="1.00"/>
    <node id="25675598" x="3143.06" y="6193.88" type="priority" radius="1.00"/>
    <node id="25675600" x="3147.46" y="6189.87" type="priority" radius="1.00"/>
    <node id="25675664" x="3018.73" y="5960.38" type="priority" radius="1.00"/>
    <node id="25675695" x="3159.35" y="6113.11" type="priority" radius="1.00"/>
    <node id="25697076" x="3510.92" y="6052.73" type="dead_end" radius="1.00"/>
    <node id="25697082" x="3228.34" y="6059.53" type="priority" radius="1.00"/>
    <node id="25697084" x="3290.28" y="6052.77" type="priority" radius="1.00"/>
    <node id="25697086" x="3520.64" y="6033.29" type="dead_end" radius="1.00"/>
    <node id="25697087" x="3226.55" y="6056.52" type="priority" radius="1.00"/>
    <node id="25697100" x="3277.02" y="6015.13" type="priority" radius="1.00"/>
    <node id="25714306" x="3260.79" y="5815.30" type="priority" radius="1.00"/>
    <node id="25714350" x="3494.48" y="5188.59" type="dead_end" radius="1.00"/>
    <node id="2577363139" x="1888.80" y="6743.46" type="priority" radius="1.00"/>
    <node id="2692001926" x="0.00" y="5398.12" type="dead_end" radius="1.00"/>
    <node id="2692001983" x="4763.13" y="4935.21" type="dead_end" radius="1.00"/>
    <node id="27689033" x="1304.22" y="6490.12" type="traffic_light" tl="27689033" radius="1.00"/>
    <node id="27835530" x="2820.64" y="6085.89" type="priority" radius="1.00"/>
    <node id="27835567" x="3132.69" y="6067.49" type="priority" radius="1.00"/>
    <node id="27835725" x="1653.91" y="6088.90" type="dead_end" radius="1.00"/>
    <node id="28108879" x="2068.02" y="6271.13" type="traffic_light" tl="joinedS_4" radius="1.00"/>
    <node id="28109191" x="1905.84" y="6751.71" type="priority" radius="1.00"/>
    <node id="28109211" x="2339.09" y="6337.35" type="priority" radius="1.00"/>
    <node id="28393967" x="2293.73" y="6923.35" type="priority" radius="1.00"/>
    <node id="28399239" x="2330.78" y="6473.71" type="priority" radius="1.00"/>
    <node id="28399982" x="2313.18" y="6443.11" type="priority" radius="1.00"/>
    <node id="28400235" x="2500.24" y="6233.36" type="priority" radius="1.00"/>
    <node id="28400269" x="2487.47" y="6179.88" type="traffic_light" tl="joinedS_3" radius="1.00"/>
    <node id="29039402" x="103.41" y="5586.20" type="dead_end" radius="1.00"/>
    <node id="29039427" x="135.30" y="5511.62" type="dead_end" radius="1.00"/>
    <node id="298691201" x="1378.17" y="6597.64" type="priority" radius="1.00"/>
    <node id="3010493438" x="6787.85" y="12656.43" type="priority" radius="1.00"/>
    <node id="3010493504" x="3872.40" y="4896.73" type="priority" radius="1.00"/>
    <node id="30124516" x="317.43" y="5824.57" type="traffic_light" tl="30124516" radius="1.00"/>
    <node id="30124517" x="318.62" y="5816.46" type="traffic_light" tl="30124517" radius="1.00"/>
    <node id="30125183" x="139.54" y="5584.59" type="traffic_light" tl="30125183" radius="1.00"/>
    <node id="301804104" x="1284.65" y="5787.83" type="dead_end" radius="1.00"/>
    <node id="301804379" x="1294.48" y="5815.43" type="traffic_light" tl="joinedS_6" radius="1.00"/>
    <node id="302727652" x="1568.20" y="6074.46" type="traffic_light" tl="302727652" radius="1.00"/>
    <node id="302727653" x="1598.49" y="6019.32" type="priority" radius="1.00"/>
    <node id="302727654" x="1992.90" y="5957.19" type="priority" radius="1.00"/>
    <node id="30517505" x="2711.87" y="7191.70" type="traffic_light" tl="30517505" radius="1.00"/>
    <node id="30518121" x="2470.45" y="6982.73" type="priority" radius="1.00"/>
    <node id="30518126" x="2444.84" y="6814.92" type="priority" radius="1.00"/>
    <node id="305663631" x="2099.37" y="5947.37" type="priority" radius="1.00"/>
    <node id="305663662" x="2174.87" y="6178.24" type="priority" radius="1.00"/>
    <node id="305663670" x="2141.04" y="6254.98" type="priority" radius="1.00"/>
    <node id="30845913" x="3326.83" y="7122.87" type="dead_end" radius="1.00"/>
    <node id="30845957" x="3292.95" y="7115.50" type="dead_end" radius="1.00"/>
    <node id="30847455" x="3293.64" y="6501.05" type="priority" radius="1.00"/>
    <node id="30847459" x="3234.79" y="6331.41" type="priority" radius="1.00"/>
    <node id="30847462" x="3130.40" y="6206.64" type="priority" radius="1.00"/>
    <node id="30847470" x="2722.22" y="6160.43" type="priority" radius="1.00"/>
    <node id="31500254" x="2214.03" y="6806.72" type="priority" radius="1.00"/>
    <node id="31500259" x="2126.89" y="6821.10" type="priority" radius="1.00"/>
    <node id="31500264" x="2274.66" y="6894.93" type="priority" radius="1.00"/>
    <node id="316545067" x="1851.06" y="6206.30" type="priority" radius="1.00"/>
    <node id="316545116" x="1855.23" y="5645.43" type="priority" radius="1.00"/>
    <node id="316545121" x="1929.59" y="6078.67" type="priority" radius="1.00"/>
    <node id="316545133" x="1936.97" y="6191.87" type="priority" radius="1.00"/>
    <node id="316545140" x="2163.87" y="5943.75" type="priority" radius="1.00"/>
    <node id="316545144" x="2303.10" y="6035.70" type="priority" radius="1.00"/>
    <node id="317497034" x="1977.91" y="5847.23" type="priority" radius="1.00"/>
    <node id="317497037" x="1893.94" y="5860.35" type="priority" radius="1.00"/>
    <node id="317497040" x="1830.64" y="6096.49" type="priority" radius="1.00"/>
    <node id="317497041" x="1815.75" y="5986.46" type="priority" radius="1.00"/>
    <node id="317497042" x="1950.51" y="6271.90" type="priority" radius="1.00"/>
    <node id="317497043" x="1914.13" y="5967.81" type="priority" radius="1.00"/>
    <node id="317497045" x="1695.63" y="5706.19" type="priority" radius="1.00"/>
    <node id="317497048" x="2008.25" y="6065.35" type="priority" radius="1.00"/>
    <node id="317497054" x="2025.05" y="6178.02" type="priority" radius="1.00"/>
    <node id="317497061" x="2282.89" y="6156.67" type="priority" radius="1.00"/>
    <node id="317497065" x="2432.16" y="5995.81" type="priority" radius="1.00"/>
    <node id="317497066" x="2226.97" y="5940.29" type="priority" radius="1.00"/>
    <node id="317497109" x="2220.20" y="5741.96" type="priority" radius="1.00"/>
    <node id="317497126" x="2043.14" y="5949.87" type="priority" radius="1.00"/>
    <node id="317497143" x="2544.89" y="5619.32" type="priority" radius="1.00"/>
    <node id="317497162" x="1414.63" y="5986.48" type="traffic_light" tl="317497162" radius="1.00"/>
    <node id="31943928" x="1289.53" y="6276.04" type="priority" radius="1.00"/>
    <node id="31943993" x="1371.83" y="6200.09" type="priority" radius="1.00"/>
    <node id="31944009" x="1313.80" y="6488.55" type="traffic_light" tl="31944009" radius="1.00"/>
    <node id="31944174" x="1820.87" y="6350.67" type="traffic_light" tl="joinedS_1" radius="1.00"/>
    <node id="31944369" x="1977.22" y="6334.06" type="priority" radius="1.00"/>
    <node id="31944418" x="1915.76" y="6344.67" type="priority" radius="1.00"/>
    <node id="31944682" x="1808.91" y="6431.48" type="priority" radius="1.00"/>
    <node id="31944710" x="1721.69" y="6377.06" type="priority" radius="1.00"/>
    <node id="31944725" x="1889.63" y="6482.84" type="priority" radius="1.00"/>
    <node id="31944754" x="1720.37" y="6469.74" type="priority" radius="1.00"/>
    <node id="31944773" x="1842.90" y="6699.60" type="priority" radius="1.00"/>
    <node id="31944906" x="1758.62" y="6400.10" type="priority" radius="1.00"/>
    <node id="31944935" x="1798.54" y="6542.35" type="priority" radius="1.00"/>
    <node id="31944973" x="1685.68" y="6487.61" type="priority" radius="1.00"/>
    <node id="31944994" x="1631.94" y="6515.30" type="priority" radius="1.00"/>
    <node id="31945030" x="1789.50" y="6591.03" type="priority" radius="1.00"/>
    <node id="31945052" x="1780.15" y="6637.34" type="priority" radius="1.00"/>
    <node id="31945069" x="1580.04" y="6542.93" type="priority" radius="1.00"/>
    <node id="31945106" x="1944.25" y="6535.84" type="priority" radius="1.00"/>
    <node id="31945411" x="1386.33" y="6328.79" type="priority" radius="1.00"/>
    <node id="31945529" x="1757.34" y="6522.38" type="priority" radius="1.00"/>
    <node id="31945581" x="1785.50" y="6667.49" type="priority" radius="1.00"/>
    <node id="31945730" x="1884.87" y="6724.59" type="priority" radius="1.00"/>
    <node id="31945763" x="1913.66" y="6723.03" type="priority" radius="1.00"/>
    <node id="31945875" x="1877.84" y="6737.83" type="priority" radius="1.00"/>
    <node id="31946163" x="1755.67" y="6673.70" type="priority" radius="1.00"/>
    <node id="3247697979" x="3112.82" y="6016.32" type="priority" radius="1.00"/>
    <node id="3258690474" x="2365.93" y="6212.34" type="traffic_light" tl="joinedS_2" radius="1.00"/>
    <node id="3258690476" x="2421.13" y="6175.67" type="priority" radius="1.00"/>
    <node id="3258690478" x="3025.66" y="6068.80" type="priority" radius="1.00"/>
    <node id="3258690481" x="3073.63" y="6114.25" type="priority" radius="1.00"/>
    <node id="3258690482" x="3022.39" y="6014.02" type="priority" radius="1.00"/>
    <node id="3305962819" x="3033.48" y="6028.49" type="priority" radius="1.00"/>
    <node id="3345691432" x="3288.14" y="6354.25" type="priority" radius="1.00"/>
    <node id="3345705467" x="2528.46" y="6160.09" type="priority" radius="1.00"/>
    <node id="3345714852" x="2571.51" y="6139.74" type="right_before_left" radius="1.00"/>
    <node id="3345714853" x="2637.81" y="6126.48" type="priority" radius="1.00"/>
    <node id="3345761978" x="2603.66" y="6084.22" type="priority" radius="1.00"/>
    <node id="3345784090" x="2008.12" y="5733.74" type="priority" radius="1.00"/>
    <node id="3345788193" x="1954.03" y="5740.77" type="priority" radius="1.00"/>
    <node id="3345788194" x="1873.01" y="5760.97" type="priority" radius="1.00"/>
    <node id="3345788195" x="1789.76" y="5819.39" type="priority" radius="1.00"/>
    <node id="3345788199" x="1858.69" y="6249.68" type="traffic_light" tl="joinedS_1" radius="1.00"/>
    <node id="3345788200" x="1799.93" y="6216.41" type="priority" radius="1.00"/>
    <node id="3347746098" x="2361.09" y="6227.70" type="traffic_light" tl="joinedS_2" radius="1.00"/>
    <node id="3347746099" x="2171.11" y="6269.08" type="priority" radius="1.00"/>
    <node id="3347746100" x="1854.58" y="6270.91" type="traffic_light" tl="joinedS_1" radius="1.00"/>
    <node id="3347746101" x="1807.91" y="6244.32" type="priority" radius="1.00"/>
    <node id="3347746102" x="1759.90" y="6193.23" type="priority" radius="1.00"/>
    <node id="3347746103" x="1732.68" y="6136.95" type="priority" radius="1.00"/>
    <node id="3347775420" x="2405.47" y="6119.24" type="priority" radius="1.00"/>
    <node id="3481723198" x="2308.24" y="6484.72" type="traffic_light" tl="joinedS_5" radius="1.00"/>
    <node id="3481723201" x="2378.92" y="6129.25" type="priority" radius="1.00"/>
    <node id="3481723203" x="2389.00" y="5934.69" type="priority" radius="1.00"/>
    <node id="3481723205" x="2107.08" y="6190.51" type="priority" radius="1.00"/>
    <node id="3481723206" x="2089.33" y="5478.17" type="priority" radius="1.00"/>
    <node id="3481723221" x="2461.71" y="5772.92" type="priority" radius="1.00"/>
    <node id="3505920477" x="1818.54" y="6963.04" type="priority" radius="1.00"/>
    <node id="3505920479" x="1738.42" y="6810.88" type="priority" radius="1.00"/>
    <node id="3505920485" x="1585.94" y="6740.73" type="priority" radius="1.00"/>
    <node id="3505920486" x="1693.17" y="6874.58" type="priority" radius="1.00"/>
    <node id="3505920993" x="1875.37" y="7002.93" type="priority" radius="1.00"/>
    <node id="3508714269" x="2217.92" y="7050.40" type="priority" radius="1.00"/>
    <node id="3894518663" x="2004.82" y="6820.40" type="priority" radius="1.00"/>
    <node id="3894518665" x="1975.74" y="6894.75" type="priority" radius="1.00"/>
    <node id="3894518667" x="2060.15" y="6901.82" type="priority" radius="1.00"/>
    <node id="3894518668" x="2054.21" y="6856.91" type="priority" radius="1.00"/>
    <node id="3895478397" x="2580.83" y="6602.37" type="priority" radius="1.00"/>
    <node id="3896017285" x="2978.50" y="5986.84" type="priority" radius="1.00"/>
    <node id="3896017286" x="2866.60" y="5849.70" type="priority" radius="1.00"/>
    <node id="3896017469" x="1738.35" y="5438.11" type="priority" radius="1.00"/>
    <node id="4041789851" x="2521.85" y="6188.51" type="priority" radius="1.00"/>
    <node id="4041789853" x="2689.42" y="6156.74" type="priority" radius="1.00"/>
    <node id="4041789854" x="2875.14" y="6119.96" type="priority" radius="1.00"/>
    <node id="4053207199" x="2816.26" y="6153.50" type="priority" radius="1.00"/>
    <node id="4053207200" x="2871.02" y="6149.18" type="priority" radius="1.00"/>
    <node id="4062167678" x="2610.46" y="6096.20" type="dead_end" radius="1.00"/>
    <node id="4314464068" x="2602.77" y="6158.41" type="priority" radius="1.00"/>
    <node id="4314464069" x="2597.72" y="6134.50" type="priority" radius="1.00"/>
    <node id="4358972911" x="3569.52" y="6762.53" type="priority" radius="1.00"/>
    <node id="4358972920" x="3427.36" y="6374.92" type="priority" radius="1.00"/>
    <node id="438155977#1-AddedOnRampNode" x="3518.62" y="6345.61" type="priority" radius="1.00"/>
    <node id="4579454191" x="2294.59" y="6511.60" type="priority" radius="1.00"/>
    <node id="4579454193" x="2310.09" y="6514.52" type="priority" radius="1.00"/>
    <node id="4677520552" x="3263.93" y="6677.97" type="priority" radius="1.00"/>
    <node id="4677520557" x="3263.44" y="6496.55" type="priority" radius="1.00"/>
    <node id="4677520566" x="3225.31" y="6206.48" type="priority" radius="1.00"/>
    <node id="4677520568" x="3238.90" y="6251.04" type="priority" radius="1.00"/>
    <node id="4677520571" x="3196.33" y="6218.27" type="priority" radius="1.00"/>
    <node id="4677572059" x="2845.12" y="6453.23" type="priority" radius="1.00"/>
    <node id="4677572060" x="2874.43" y="6433.63" type="priority" radius="1.00"/>
    <node id="4677572061" x="2686.57" y="6272.49" type="priority" radius="1.00"/>
    <node id="4677572075" x="1960.25" y="5745.21" type="priority" radius="1.00"/>
    <node id="4690905154" x="3268.50" y="6522.92" type="priority" radius="1.00"/>
    <node id="471726983" x="2855.46" y="6470.98" type="priority" radius="1.00"/>
    <node id="471726990" x="3014.24" y="6222.39" type="priority" radius="1.00"/>
    <node id="471726992" x="2920.12" y="6377.73" type="priority" radius="1.00"/>
    <node id="4827064347" x="2648.43" y="5997.60" type="priority" radius="1.00"/>
    <node id="5005721944" x="2017.52" y="5790.41" type="priority" radius="1.00"/>
    <node id="5005721945" x="2053.36" y="5786.92" type="dead_end" radius="1.00"/>
    <node id="5005742560" x="3021.08" y="5934.35" type="priority" radius="1.00"/>
    <node id="5057481093" x="2489.26" y="6298.44" type="traffic_light" tl="5057481093" radius="1.00"/>
    <node id="5057481096" x="2351.97" y="6597.89" type="right_before_left" radius="1.00"/>
    <node id="5057481103" x="2390.98" y="6644.86" type="priority" radius="1.00"/>
    <node id="5057481104" x="2364.34" y="6656.20" type="right_before_left" radius="1.00"/>
    <node id="5057481122" x="2493.62" y="6275.72" type="priority" radius="1.00"/>
    <node id="5057481123" x="2368.48" y="6474.44" type="priority" radius="1.00"/>
    <node id="5057481128" x="2584.25" y="6453.25" type="priority" radius="1.00"/>
    <node id="5057481138" x="2450.89" y="6400.29" type="right_before_left" radius="1.00"/>
    <node id="5057481141" x="2447.65" y="6376.24" type="priority" radius="1.00"/>
    <node id="5057481153" x="2482.09" y="6325.30" type="priority" radius="1.00"/>
    <node id="5057481154" x="2379.37" y="6450.03" type="priority" radius="1.00"/>
    <node id="5057481156" x="2426.87" y="6397.11" type="priority" radius="1.00"/>
    <node id="5057487670" x="2717.61" y="6282.91" type="priority" radius="1.00"/>
    <node id="5057488826" x="3030.06" y="6314.68" type="priority" radius="1.00"/>
    <node id="5318650589" x="2603.14" y="6232.36" type="dead_end" radius="1.00"/>
    <node id="5318650595" x="2669.72" y="6160.47" type="priority" radius="1.00"/>
    <node id="5318650596" x="2543.35" y="6217.67" type="dead_end" radius="1.00"/>
    <node id="5318650597" x="2482.36" y="6406.49" type="dead_end" radius="1.00"/>
    <node id="5318679233" x="2597.63" y="6174.14" type="priority" radius="1.00"/>
    <node id="5318702796" x="2887.28" y="6056.89" type="traffic_light" tl="5318702796" radius="1.00"/>
    <node id="5318776399" x="2683.24" y="6117.78" type="right_before_left" radius="1.00"/>
    <node id="5318790648" x="2928.07" y="6142.95" type="priority" radius="1.00"/>
    <node id="5318790649" x="2890.29" y="6073.79" type="dead_end" radius="1.00"/>
    <node id="5318804279" x="2656.92" y="6082.99" type="priority" radius="1.00"/>
    <node id="5318835000" x="2676.80" y="6079.62" type="dead_end" radius="1.00"/>
    <node id="5318835002" x="2679.59" y="6086.44" type="priority" radius="1.00"/>
    <node id="5318875759" x="2639.65" y="6080.22" type="priority" radius="1.00"/>
    <node id="5318901145" x="2541.78" y="6110.79" type="priority" radius="1.00"/>
    <node id="5318901148" x="2520.91" y="6132.17" type="priority" radius="1.00"/>
    <node id="5318970911" x="3274.36" y="6427.12" type="priority" radius="1.00"/>
    <node id="5318971121" x="3308.09" y="6429.36" type="priority" radius="1.00"/>
    <node id="5318971128" x="3302.54" y="6419.98" type="priority" radius="1.00"/>
    <node id="5318971134" x="3317.85" y="6410.21" type="priority" radius="1.00"/>
    <node id="5318971140" x="3279.14" y="6382.19" type="priority" radius="1.00"/>
    <node id="5318974640" x="3510.89" y="6694.46" type="priority" radius="1.00"/>
    <node id="5319094472" x="2335.80" y="6579.29" type="priority" radius="1.00"/>
    <node id="5319126456" x="2346.09" y="6468.54" type="priority" radius="1.00"/>
    <node id="5319160511" x="2320.73" y="6729.58" type="priority" radius="1.00"/>
    <node id="5319160515" x="2318.82" y="6740.47" type="traffic_light" tl="5319160515" radius="1.00"/>
    <node id="5319255737" x="2338.09" y="6617.93" type="priority" radius="1.00"/>
    <node id="5319270106" x="2336.47" y="6642.76" type="priority" radius="1.00"/>
    <node id="5319279514" x="2330.66" y="6681.42" type="priority" radius="1.00"/>
    <node id="5319394452" x="2337.44" y="6601.50" type="priority" radius="1.00"/>
    <node id="5320190914" x="2926.14" y="6129.45" type="dead_end" radius="1.00"/>
    <node id="5320191644" x="2604.57" y="6149.73" type="dead_end" radius="1.00"/>
    <node id="5320191648" x="2603.55" y="6144.29" type="dead_end" radius="1.00"/>
    <node id="5320191650" x="2609.35" y="6139.44" type="dead_end" radius="1.00"/>
    <node id="5320191652" x="2611.14" y="6152.35" type="dead_end" radius="1.00"/>
    <node id="5320191654" x="2595.36" y="6098.29" type="dead_end" radius="1.00"/>
    <node id="5320191655" x="2652.11" y="6152.82" type="dead_end" radius="1.00"/>
    <node id="5320191656" x="2606.88" y="6161.43" type="dead_end" radius="1.00"/>
    <node id="5320191660" x="2597.48" y="6110.37" type="dead_end" radius="1.00"/>
    <node id="5320191661" x="2590.96" y="6069.91" type="dead_end" radius="1.00"/>
    <node id="656112650" x="7678.80" y="0.00" type="priority" radius="1.00"/>
    <node id="656124128" x="2464.33" y="17011.02" type="priority" radius="1.00"/>
    <node id="665140134" x="1806.83" y="5873.87" type="priority" radius="1.00"/>
    <node id="665140139" x="1725.22" y="6001.66" type="priority" radius="1.00"/>
    <node id="673738964" x="2229.90" y="6002.05" type="priority" radius="1.00"/>
    <node id="673738995" x="2078.36" y="6196.95" type="priority" radius="1.00"/>
    <node id="680058384" x="2342.62" y="5996.80" type="priority" radius="1.00"/>
    <node id="cluster_1733638531_31945086" x="1879.37" y="6523.88" type="priority" radius="1.00"/>
    <node id="cluster_1733638560_5320144663_5320144664" x="2934.92" y="6043.63" type="priority" radius="1.00"/>
    <node id="cluster_1733690263_1733690265_1733690266" x="1846.52" y="6342.30" type="priority" radius="1.00"/>
    <node id="cluster_1733690337_5320191662" x="2615.54" y="6063.79" type="priority" radius="1.00"/>
    <node id="cluster_1739882116_5320190916" x="2892.35" y="6147.22" type="priority" radius="1.00"/>
    <node id="cluster_2524664727_302727655_31945480" x="2050.40" y="6279.83" type="traffic_light" tl="joinedS_4" radius="1.00"/>
    <node id="cluster_2577363143_28399401_4191894359" x="2266.45" y="6567.04" type="traffic_light" tl="joinedS_5" radius="1.00"/>
    <node id="cluster_27835716_28109005" x="1726.81" y="6110.80" type="traffic_light" tl="cluster_27835716_28109005" radius="1.00"/>
    <node id="cluster_30847911_5318970918" x="3295.23" y="6446.36" type="priority" radius="1.00"/>
    <node id="cluster_316545041_316545152" x="1716.32" y="5881.72" type="priority" radius="1.00"/>
    <node id="cluster_3345788198_3896017351" x="1759.50" y="5778.11" type="priority" radius="1.00"/>
    <node id="cluster_3481723197_5319105263_5319394454" x="2324.03" y="6554.36" type="traffic_light" tl="joinedS_5" radius="1.00"/>
    <node id="cluster_471726985_5057487669" x="2755.96" y="6299.30" type="priority" radius="1.00"/>
</nodes>
