<?xml version="1.0" encoding="UTF-8"?>

<!-- generated on Sat Jan  6 14:52:35 2018 by SUMO netconvert Version 0.30.0
<?xml version="1.0" encoding="UTF-8"?>

<configuration xmlns:xsi="http://www.w3.org/2001/XMLSchema-instance" xsi:noNamespaceSchemaLocation="http://sumo.dlr.de/xsd/netconvertConfiguration.xsd">

    <input>
        <type-files value="/media/jefferson/Dados/workspace/sumo-0.30.0/data/typemap/osmNetconvert.typ.xml,/media/jefferson/Dados/workspace/sumo-0.30.0/data/typemap/osmNetconvertUrbanBrSP.typ.xml,/media/jefferson/Dados/workspace/sumo-0.30.0/data/typemap/osmNetconvertPedestrians.typ.xml"/>
        <osm-files value="/media/jefferson/Dados/workspace/gtracker/vanet/sp/sp_bbox.osm.xml"/>
    </input>

    <output>
        <output-file value="/media/jefferson/Dados/workspace/gtracker/vanet/sp/sp.net.xml"/>
        <output.street-names value="true"/>
        <output.original-names value="true"/>
    </output>

    <projection>
        <proj.utm value="true"/>
    </projection>

    <tls_building>
        <tls.discard-loaded value="false"/>
        <tls.discard-simple value="false"/>
        <tls.join value="true"/>
        <tls.join-dist value="40"/>
        <tls.guess-signals value="false"/>
    </tls_building>

    <ramp_guessing>
        <ramps.guess value="true"/>
    </ramp_guessing>

    <processing>
        <geometry.remove value="true"/>
        <roundabouts.guess value="false"/>
        <junctions.join value="true"/>
        <junctions.join-dist value="5"/>
        <junctions.corner-detail value="5"/>
        <sidewalks.guess value="false"/>
        <crossings.guess value="true"/>
    </processing>

    <building_defaults>
        <default.junctions.radius value="1"/>
    </building_defaults>

    <report>
        <verbose value="true"/>
    </report>

</configuration>
-->

<net version="0.27" junctionCornerDetail="5" xmlns:xsi="http://www.w3.org/2001/XMLSchema-instance" xsi:noNamespaceSchemaLocation="http://sumo.dlr.de/xsd/net_file.xsd">

    <location netOffset="-320521.10,2621997.52" convBoundary="0.00,0.00,7678.80,17011.02" origBoundary="-46.759682,-23.699719,-46.685046,-23.545569" projParameter="+proj=utm +zone=23 +ellps=WGS84 +datum=WGS84 +units=m +no_defs"/>

    <type id="highway.bridleway" priority="1" numLanes="1" speed="2.78" allow="pedestrian" oneway="1" width="2.00"/>
    <type id="highway.bus_guideway" priority="1" numLanes="1" speed="8.33" allow="bus" oneway="1"/>
    <type id="highway.cycleway" priority="1" numLanes="1" speed="5.56" allow="bicycle" oneway="0" width="1.00"/>
    <type id="highway.footway" priority="1" numLanes="1" speed="2.78" allow="pedestrian" oneway="1" width="2.00"/>
    <type id="highway.ford" priority="1" numLanes="1" speed="2.78" allow="army" oneway="0"/>
    <type id="highway.living_street" priority="3" numLanes="1" speed="2.78" disallow="tram rail_urban rail rail_electric ship" oneway="0"/>
    <type id="highway.motorway" priority="13" numLanes="2" speed="31.10" allow="private emergency authority army vip passenger hov taxi bus coach delivery truck trailer motorcycle evehicle custom1 custom2" oneway="1"/>
    <type id="highway.motorway_link" priority="12" numLanes="1" speed="31.10" allow="private emergency authority army vip passenger hov taxi bus coach delivery truck trailer motorcycle evehicle custom1 custom2" oneway="1"/>
    <type id="highway.path" priority="1" numLanes="1" speed="2.78" allow="bicycle pedestrian" oneway="1" width="2.00"/>
    <type id="highway.pedestrian" priority="1" numLanes="1" speed="2.78" allow="pedestrian" oneway="1" width="2.00"/>
    <type id="highway.primary" priority="9" numLanes="2" speed="31.10" disallow="tram rail_urban rail rail_electric pedestrian ship" oneway="0" sidewalkWidth="2.00"/>
    <type id="highway.primary_link" priority="8" numLanes="1" speed="31.10" disallow="tram rail_urban rail rail_electric pedestrian ship" oneway="0" sidewalkWidth="2.00"/>
    <type id="highway.raceway" priority="14" numLanes="2" speed="83.33" allow="vip" oneway="0"/>
    <type id="highway.residential" priority="4" numLanes="1" speed="13.89" disallow="tram rail_urban rail rail_electric pedestrian ship" oneway="0" sidewalkWidth="2.00"/>
    <type id="highway.secondary" priority="7" numLanes="2" speed="31.10" disallow="tram rail_urban rail rail_electric pedestrian ship" oneway="0" sidewalkWidth="2.00"/>
    <type id="highway.secondary_link" priority="6" numLanes="1" speed="31.10" disallow="tram rail_urban rail rail_electric pedestrian ship" oneway="0" sidewalkWidth="2.00"/>
    <type id="highway.service" priority="2" numLanes="1" speed="5.56" disallow="tram rail_urban rail rail_electric pedestrian ship" oneway="0"/>
    <type id="highway.services" priority="1" numLanes="1" speed="8.33" disallow="tram rail_urban rail rail_electric ship" oneway="0"/>
    <type id="highway.stairs" priority="1" numLanes="1" speed="1.39" allow="pedestrian" oneway="1" width="2.00"/>
    <type id="highway.step" priority="1" numLanes="1" speed="1.39" allow="pedestrian" oneway="1" width="2.00"/>
    <type id="highway.steps" priority="1" numLanes="1" speed="1.39" allow="pedestrian" oneway="1" width="2.00"/>
    <type id="highway.tertiary" priority="6" numLanes="1" speed="31.10" disallow="tram rail_urban rail rail_electric pedestrian ship" oneway="0" sidewalkWidth="2.00"/>
    <type id="highway.tertiary_link" priority="5" numLanes="1" speed="31.10" disallow="tram rail_urban rail rail_electric pedestrian ship" oneway="0" sidewalkWidth="2.00"/>
    <type id="highway.track" priority="1" numLanes="1" speed="5.56" disallow="tram rail_urban rail rail_electric ship" oneway="0"/>
    <type id="highway.trunk" priority="11" numLanes="2" speed="31.10" disallow="tram rail_urban rail rail_electric bicycle pedestrian ship" oneway="0"/>
    <type id="highway.trunk_link" priority="10" numLanes="1" speed="31.10" disallow="tram rail_urban rail rail_electric bicycle pedestrian ship" oneway="0"/>
    <type id="highway.unclassified" priority="5" numLanes="1" speed="13.89" disallow="tram rail_urban rail rail_electric pedestrian ship" oneway="0" sidewalkWidth="2.00"/>
    <type id="highway.unsurfaced" priority="1" numLanes="1" speed="8.33" disallow="tram rail_urban rail rail_electric ship" oneway="0"/>
    <type id="railway.light_rail" priority="15" numLanes="1" speed="27.78" allow="rail_urban" oneway="1"/>
    <type id="railway.preserved" priority="15" numLanes="1" speed="27.78" allow="rail" oneway="1"/>
    <type id="railway.rail" priority="15" numLanes="1" speed="83.33" allow="rail rail_electric" oneway="1"/>
    <type id="railway.subway" priority="15" numLanes="1" speed="27.78" allow="rail_urban" oneway="1"/>
    <type id="railway.tram" priority="15" numLanes="1" speed="13.89" allow="tram" oneway="1"/>

    <edge id=":161389762-AddedOnRampNode_0" function="internal">
        <lane id=":161389762-AddedOnRampNode_0_0" index="0" allow="private emergency authority army vip passenger hov taxi bus coach delivery truck trailer motorcycle evehicle custom1 custom2" speed="31.10" length="2.00" shape="3173.75,5940.04 3174.16,5939.61 3174.42,5939.30 3174.71,5939.01 3175.17,5938.64"/>
    </edge>
    <edge id=":1699011837_0" function="internal">
        <lane id=":1699011837_0_0" index="0" disallow="tram rail_urban rail rail_electric pedestrian ship" speed="13.89" length="0.33" shape="1482.52,6585.21 1482.25,6585.18"/>
        <lane id=":1699011837_0_1" index="1" disallow="tram rail_urban rail rail_electric pedestrian ship" speed="13.89" length="0.33" shape="1482.99,6581.95 1482.65,6581.90"/>
        <lane id=":1699011837_0_2" index="2" disallow="tram rail_urban rail rail_electric pedestrian ship" speed="13.89" length="0.33" shape="1483.46,6578.68 1483.06,6578.63"/>
    </edge>
    <edge id=":1699011837_w0" function="walkingarea">
        <lane id=":1699011837_w0_0" index="0" allow="pedestrian" speed="1.00" length="0.21" width="2.00" shape="1482.05,6586.87 1481.80,6588.85 1481.99,6588.88 1482.27,6586.90"/>
    </edge>
    <edge id=":1699011854_0" function="internal">
        <lane id=":1699011854_0_0" index="0" disallow="tram rail_urban rail rail_electric pedestrian ship" speed="13.89" length="0.40" shape="1482.28,6569.37 1482.56,6569.41"/>
        <lane id=":1699011854_0_1" index="1" disallow="tram rail_urban rail rail_electric pedestrian ship" speed="13.89" length="0.40" shape="1481.70,6572.62 1482.21,6572.69"/>
    </edge>
    <edge id=":1699011854_w0" function="walkingarea">
        <lane id=":1699011854_w0_0" index="0" allow="pedestrian" speed="1.00" length="0.10" width="2.00" shape="1482.73,6567.72 1482.94,6565.73 1482.94,6565.73 1482.59,6567.70"/>
    </edge>
    <edge id=":1733638495_0" function="internal">
        <lane id=":1733638495_0_0" index="0" disallow="tram rail_urban rail rail_electric pedestrian ship" speed="13.89" length="0.27" shape="1892.64,6757.88 1892.35,6757.74"/>
        <lane id=":1733638495_0_1" index="1" disallow="tram rail_urban rail rail_electric pedestrian ship" speed="13.89" length="0.27" shape="1893.99,6754.87 1893.74,6754.75"/>
        <lane id=":1733638495_0_2" index="2" disallow="tram rail_urban rail rail_electric pedestrian ship" speed="13.89" length="0.27" shape="1895.33,6751.85 1895.14,6751.76"/>
    </edge>
    <edge id=":1733638495_w0" function="walkingarea">
        <lane id=":1733638495_w0_0" index="0" allow="pedestrian" speed="1.00" length="0.37" width="2.00" shape="1891.63,6759.29 1890.79,6761.10 1891.14,6761.26 1891.95,6759.43"/>
    </edge>
    <edge id=":1733638496_0" function="internal">
        <lane id=":1733638496_0_0" index="0" disallow="tram rail_urban rail rail_electric pedestrian ship" speed="13.89" length="13.77" shape="1886.46,6755.00 1874.02,6749.20"/>
        <lane id=":1733638496_0_1" index="1" disallow="tram rail_urban rail rail_electric pedestrian ship" speed="13.89" length="13.77" shape="1887.86,6752.01 1875.38,6746.19"/>
        <lane id=":1733638496_0_2" index="2" disallow="tram rail_urban rail rail_electric pedestrian ship" speed="13.89" length="13.77" shape="1889.25,6749.02 1876.74,6743.18"/>
    </edge>
    <edge id=":1733638496_3" function="internal">
        <lane id=":1733638496_3_0" index="0" disallow="tram rail_urban rail rail_electric pedestrian ship" speed="13.89" length="8.94" shape="1884.55,6744.29 1881.78,6745.26 1879.84,6746.32 1877.97,6746.84 1875.38,6746.19"/>
        <lane id=":1733638496_3_1" index="1" disallow="tram rail_urban rail rail_electric pedestrian ship" speed="13.89" length="8.94" shape="1884.55,6744.29 1882.20,6744.68 1880.54,6744.64 1878.93,6744.15 1876.74,6743.18"/>
    </edge>
    <edge id=":1733638496_c0" function="crossing" crossingEdges="550753287#1">
        <lane id=":1733638496_c0_0" index="0" allow="pedestrian" speed="1.00" length="9.80" width="4.00" shape="1888.12,6746.72 1883.97,6755.60"/>
    </edge>
    <edge id=":1733638496_w0" function="walkingarea">
        <lane id=":1733638496_w0_0" index="0" allow="pedestrian" speed="1.00" length="9.24" width="4.00" shape="1873.32,6750.75 1872.50,6752.57 1884.90,6758.35 1885.74,6756.54 1882.16,6754.76"/>
    </edge>
    <edge id=":1733638496_w1" function="walkingarea">
        <lane id=":1733638496_w1_0" index="0" allow="pedestrian" speed="1.00" length="3.03" width="4.00" shape="1886.30,6745.88 1889.93,6747.57 1885.29,6747.91 1884.89,6745.95"/>
    </edge>
    <edge id=":1733638500_0" function="internal">
        <lane id=":1733638500_0_0" index="0" disallow="tram rail_urban rail rail_electric pedestrian ship" speed="13.89" length="0.46" shape="1907.98,6740.40 1907.94,6740.53 1907.91,6740.62 1907.89,6740.71 1907.87,6740.84"/>
    </edge>
    <edge id=":1733638500_w0" function="walkingarea">
        <lane id=":1733638500_w0_0" index="0" allow="pedestrian" speed="1.00" length="0.12" width="2.00" shape="1909.54,6741.16 1911.50,6741.54 1911.50,6741.54 1909.60,6740.92 1909.49,6740.94 1909.47,6740.98 1909.46,6741.02 1909.46,6741.05 1909.45,6741.09"/>
    </edge>
    <edge id=":1733638501_0" function="internal">
        <lane id=":1733638501_0_0" index="0" disallow="tram rail_urban rail rail_electric pedestrian ship" speed="13.89" length="0.22" shape="1882.51,6738.55 1882.64,6738.62"/>
        <lane id=":1733638501_0_1" index="1" disallow="tram rail_urban rail rail_electric pedestrian ship" speed="13.89" length="0.22" shape="1880.93,6741.45 1881.18,6741.58"/>
    </edge>
    <edge id=":1733638501_w0" function="walkingarea">
        <lane id=":1733638501_w0_0" index="0" allow="pedestrian" speed="1.00" length="0.10" width="2.00" shape="1883.40,6737.10 1884.29,6735.31 1884.28,6735.30 1883.33,6737.06"/>
    </edge>
    <edge id=":1733638503_0" function="internal">
        <lane id=":1733638503_0_0" index="0" disallow="tram rail_urban rail rail_electric pedestrian ship" speed="13.89" length="12.80" shape="1909.67,6727.55 1907.22,6730.46 1905.56,6732.47 1903.75,6734.34 1900.89,6736.83"/>
    </edge>
    <edge id=":1733638503_1" function="internal">
        <lane id=":1733638503_1_0" index="0" disallow="tram rail_urban rail rail_electric pedestrian ship" speed="13.89" length="9.50" shape="1909.67,6727.55 1907.24,6730.04 1905.12,6731.53 1903.32,6732.04 1901.84,6731.55"/>
    </edge>
    <edge id=":1733638503_2" function="internal">
        <lane id=":1733638503_2_0" index="0" disallow="tram rail_urban rail rail_electric pedestrian ship" speed="13.89" length="1.32" shape="1903.80,6728.90 1904.61,6729.94"/>
    </edge>
    <edge id=":1733638503_3" function="internal">
        <lane id=":1733638503_3_0" index="0" disallow="tram rail_urban rail rail_electric pedestrian ship" speed="13.89" length="1.30" shape="1903.80,6728.90 1904.24,6730.12"/>
    </edge>
    <edge id=":1733638503_4" function="internal">
        <lane id=":1733638503_4_0" index="0" speed="13.89" length="8.49" shape="1904.61,6729.94 1904.94,6730.37 1904.83,6732.18 1903.49,6734.33 1900.89,6736.83"/>
    </edge>
    <edge id=":1733638503_5" function="internal">
        <lane id=":1733638503_5_0" index="0" speed="13.89" length="3.52" shape="1904.24,6730.12 1904.30,6730.29 1904.14,6731.20 1903.32,6731.62 1901.84,6731.55"/>
    </edge>
    <edge id=":1733638503_c0" function="crossing" crossingEdges="161389761#0">
        <lane id=":1733638503_c0_0" index="0" allow="pedestrian" speed="1.00" length="3.20" width="4.00" shape="1907.15,6728.01 1909.57,6730.11"/>
    </edge>
    <edge id=":1733638503_c1" function="crossing" crossingEdges="-4902414#3 4902414#3">
        <lane id=":1733638503_c1_0" index="0" allow="pedestrian" speed="1.00" length="6.50" width="4.00" shape="1902.49,6734.03 1906.36,6728.80"/>
    </edge>
    <edge id=":1733638503_c2" function="crossing" crossingEdges="161389761#1">
        <lane id=":1733638503_c2_0" index="0" allow="pedestrian" speed="1.00" length="3.20" width="4.00" shape="1903.45,6736.78 1901.41,6734.32"/>
    </edge>
    <edge id=":1733638503_w0" function="walkingarea">
        <lane id=":1733638503_w0_0" index="0" allow="pedestrian" speed="1.00" length="7.99" width="4.00" shape="1901.91,6738.06 1902.31,6737.86 1903.59,6739.40 1912.46,6729.98 1910.95,6728.67 1910.88,6728.60 1909.08,6730.72 1907.77,6732.32 1906.68,6733.62 1905.52,6734.85 1904.02,6736.26"/>
    </edge>
    <edge id=":1733638503_w1" function="walkingarea">
        <lane id=":1733638503_w1_0" index="0" allow="pedestrian" speed="1.00" length="1.86" width="4.00" shape="1908.46,6726.50 1905.99,6725.92 1904.81,6727.53 1905.32,6727.92 1905.91,6728.04 1906.52,6727.95 1907.14,6727.67 1907.79,6727.19"/>
    </edge>
    <edge id=":1733638503_w2" function="walkingarea">
        <lane id=":1733638503_w2_0" index="0" allow="pedestrian" speed="1.00" length="1.58" width="4.00" shape="1900.89,6732.84 1900.83,6732.92 1899.64,6734.53 1899.87,6735.59 1900.52,6735.00 1900.98,6734.46 1901.24,6733.98 1901.32,6733.55 1901.20,6733.17"/>
    </edge>
    <edge id=":1733638547_0" function="internal">
        <lane id=":1733638547_0_0" index="0" disallow="tram rail_urban rail rail_electric pedestrian ship" speed="13.89" length="6.74" shape="2923.73,6067.23 2925.51,6066.31 2926.72,6065.64 2927.79,6064.78 2929.14,6063.32"/>
    </edge>
    <edge id=":1733638547_1" function="internal">
        <lane id=":1733638547_1_0" index="0" allow="private emergency authority army vip passenger hov taxi bus coach delivery truck trailer motorcycle evehicle custom1 custom2" speed="22.49" length="12.27" shape="2925.28,6070.14 2928.60,6068.29 2930.99,6066.89 2933.25,6065.72 2936.18,6064.55"/>
    </edge>
    <edge id=":1733638547_w0" function="walkingarea">
        <lane id=":1733638547_w0_0" index="0" allow="pedestrian" speed="1.00" length="5.67" width="2.00" shape="2927.85,6062.21 2926.34,6060.91 2922.00,6063.96 2922.94,6065.73 2924.14,6065.22 2925.02,6064.78 2925.72,6064.38 2926.36,6063.90 2927.06,6063.24"/>
    </edge>
    <edge id=":1733638554_0" function="internal">
        <lane id=":1733638554_0_0" index="0" allow="private emergency authority army vip passenger hov taxi bus coach delivery truck trailer motorcycle evehicle custom1 custom2" speed="31.10" length="2.21" shape="2989.22,6047.10 2989.87,6047.03 2990.32,6046.97 2990.76,6046.88 2991.39,6046.73"/>
    </edge>
    <edge id=":1733638554_1" function="internal">
        <lane id=":1733638554_1_0" index="0" allow="private emergency authority army vip passenger hov taxi bus coach delivery truck trailer motorcycle evehicle custom1 custom2" speed="31.10" length="1.83" shape="2990.38,6050.32 2992.17,6049.93"/>
    </edge>
    <edge id=":1733638557_0" function="internal">
        <lane id=":1733638557_0_0" index="0" disallow="tram rail_urban rail rail_electric pedestrian ship" speed="13.89" length="0.38" shape="2892.31,6056.27 2891.96,6056.42"/>
    </edge>
    <edge id=":1733638557_1" function="internal">
        <lane id=":1733638557_1_0" index="0" disallow="tram rail_urban rail rail_electric pedestrian ship" speed="13.89" length="0.15" shape="2890.49,6053.46 2890.62,6053.40"/>
    </edge>
    <edge id=":1733638557_2" function="internal">
        <lane id=":1733638557_2_0" index="0" disallow="tram rail_urban rail rail_electric pedestrian ship" speed="13.89" length="2.41" shape="2890.49,6053.46 2891.97,6053.66 2892.70,6054.21"/>
    </edge>
    <edge id=":1733638557_3" function="internal">
        <lane id=":1733638557_3_0" index="0" speed="13.89" length="2.41" shape="2892.70,6054.21 2892.70,6055.13 2891.96,6056.42"/>
    </edge>
    <edge id=":1733638557_c0" function="crossing" crossingEdges="550860119#2">
        <lane id=":1733638557_c0_0" index="0" allow="pedestrian" speed="1.00" length="3.20" width="4.00" shape="2889.83,6055.59 2891.10,6058.53"/>
    </edge>
    <edge id=":1733638557_c1" function="crossing" crossingEdges="161389764">
        <lane id=":1733638557_c1_0" index="0" allow="pedestrian" speed="1.00" length="3.20" width="4.00" shape="2888.09,6053.03 2889.71,6055.79"/>
    </edge>
    <edge id=":1733638557_w0" function="walkingarea">
        <lane id=":1733638557_w0_0" index="0" allow="pedestrian" speed="1.00" length="1.74" width="4.00" shape="2892.71,6057.95 2893.60,6059.74 2894.08,6059.53 2893.28,6057.69 2892.94,6057.73 2889.27,6059.32"/>
    </edge>
    <edge id=":1733638557_w1" function="walkingarea">
        <lane id=":1733638557_w1_0" index="0" allow="pedestrian" speed="1.00" length="1.55" width="4.00" shape="2886.36,6054.04 2889.81,6052.02 2889.76,6051.93 2888.75,6050.20 2888.85,6050.15 2889.74,6051.94"/>
    </edge>
    <edge id=":1733638557_w2" function="walkingarea">
        <lane id=":1733638557_w2_0" index="0" allow="pedestrian" speed="1.00" length="0.24" width="4.00" shape="2887.98,6056.80 2891.43,6054.78 2891.67,6054.80 2888.00,6056.38"/>
    </edge>
    <edge id=":1733638568_0" function="internal">
        <lane id=":1733638568_0_0" index="0" allow="private emergency authority army vip passenger hov taxi bus coach delivery truck trailer motorcycle evehicle custom1 custom2" speed="31.10" length="7.06" shape="2961.72,6024.30 2961.53,6026.31 2961.84,6027.70 2962.51,6029.05 2963.40,6030.96"/>
    </edge>
    <edge id=":1733638568_1" function="internal">
        <lane id=":1733638568_1_0" index="0" disallow="tram rail_urban rail rail_electric pedestrian ship" speed="22.50" length="4.47" shape="2961.72,6024.30 2961.41,6025.14 2960.81,6025.95 2959.93,6026.73 2958.75,6027.46"/>
    </edge>
    <edge id=":1733638570_0" function="internal">
        <lane id=":1733638570_0_0" index="0" disallow="tram rail_urban rail rail_electric pedestrian ship" speed="13.89" length="11.32" shape="2942.90,6019.96 2945.69,6018.07 2947.66,6016.85 2949.49,6015.46 2951.86,6013.11"/>
    </edge>
    <edge id=":1733638570_1" function="internal">
        <lane id=":1733638570_1_0" index="0" disallow="tram rail_urban rail rail_electric pedestrian ship" speed="13.89" length="10.73" shape="2947.79,6022.87 2948.68,6019.79 2949.15,6017.58 2949.97,6015.57 2951.86,6013.11"/>
    </edge>
    <edge id=":1733638570_c0" function="crossing" crossingEdges="161389764">
        <lane id=":1733638570_c0_0" index="0" allow="pedestrian" speed="1.00" length="3.20" width="4.00" shape="2945.46,6020.08 2943.58,6017.49"/>
    </edge>
    <edge id=":1733638570_w0" function="walkingarea">
        <lane id=":1733638570_w0_0" index="0" allow="pedestrian" speed="1.00" length="7.30" width="4.00" shape="2950.61,6011.96 2949.15,6010.60 2940.72,6016.97 2941.90,6018.59 2941.96,6018.67 2943.89,6017.34 2945.36,6016.41 2946.59,6015.65 2947.75,6014.82 2949.06,6013.69"/>
    </edge>
    <edge id=":1733638570_w1" function="walkingarea">
        <lane id=":1733638570_w1_0" index="0" allow="pedestrian" speed="1.00" length="1.88" width="4.00" shape="2943.84,6021.26 2944.31,6021.61 2946.19,6022.29 2946.61,6021.22 2946.64,6020.49 2946.37,6020.12 2945.82,6020.13 2944.98,6020.51"/>
    </edge>
    <edge id=":1733638575_0" function="internal">
        <lane id=":1733638575_0_0" index="0" disallow="tram rail_urban rail rail_electric pedestrian ship" speed="31.10" length="12.75" shape="3006.36,6002.48 3002.77,6001.29 3000.28,6000.50 2997.74,6000.02 2993.98,5999.75"/>
    </edge>
    <edge id=":1733638575_1" function="internal">
        <lane id=":1733638575_1_0" index="0" disallow="tram rail_urban rail rail_electric pedestrian ship" speed="31.10" length="11.14" shape="3004.40,5997.12 3001.74,5998.95 2999.62,5999.75 2997.28,5999.89 2993.98,5999.75"/>
    </edge>
    <edge id=":1733638575_w0" function="walkingarea">
        <lane id=":1733638575_w0_0" index="0" allow="pedestrian" speed="1.00" length="11.97" width="2.00" shape="2993.92,6001.45 2993.84,6003.45 3005.26,6006.01 3005.86,6004.10 3003.39,6003.19 3001.54,6002.56 3000.01,6002.09 2998.44,6001.74 2996.53,6001.50"/>
    </edge>
    <edge id=":1733638586_0" function="internal">
        <lane id=":1733638586_0_0" index="0" disallow="tram rail_urban rail rail_electric pedestrian ship" speed="13.89" length="21.17" shape="2988.54,5979.01 2993.44,5975.37 2997.21,5972.99 3001.14,5970.84 3006.49,5967.85"/>
    </edge>
    <edge id=":1733638586_1" function="internal">
        <lane id=":1733638586_1_0" index="0" disallow="tram rail_urban rail rail_electric pedestrian ship" speed="22.49" length="20.20" shape="2988.54,5979.01 2993.66,5975.61 2998.52,5973.67 3003.11,5973.17 3007.45,5974.13"/>
        <lane id=":1733638586_1_1" index="1" disallow="tram rail_urban rail rail_electric pedestrian ship" speed="22.49" length="20.20" shape="2988.54,5979.01 2992.54,5976.72 2997.04,5975.74 3002.04,5976.07 3007.53,5977.72"/>
    </edge>
    <edge id=":1733638586_c0" function="crossing" crossingEdges="550860118#3">
        <lane id=":1733638586_c0_0" index="0" allow="pedestrian" speed="1.00" length="3.20" width="4.00" shape="3003.95,5967.47 3005.56,5970.24"/>
    </edge>
    <edge id=":1733638586_w0" function="walkingarea">
        <lane id=":1733638586_w0_0" index="0" allow="pedestrian" speed="1.00" length="2.06" width="4.00" shape="3007.00,5972.12 3007.75,5970.27 3007.29,5969.23 3006.43,5969.84 3005.96,5970.43 3005.89,5971.01 3006.21,5971.57 3006.93,5972.11"/>
    </edge>
    <edge id=":1733638586_w1" function="walkingarea">
        <lane id=":1733638586_w1_0" index="0" allow="pedestrian" speed="1.00" length="14.44" width="4.00" shape="3005.64,5966.38 3004.63,5964.65 2986.25,5976.11 2987.49,5977.68 2991.17,5975.00 2993.93,5973.08 2996.30,5971.64 2998.74,5970.30 3001.71,5968.70"/>
    </edge>
    <edge id=":1733690271_0" function="internal">
        <lane id=":1733690271_0_0" index="0" disallow="tram rail_urban rail rail_electric pedestrian ship" speed="13.89" length="19.53" shape="1840.20,6311.83 1838.78,6317.04 1838.84,6321.79 1840.36,6326.06 1843.36,6329.87"/>
    </edge>
    <edge id=":1733690271_1" function="internal">
        <lane id=":1733690271_1_0" index="0" disallow="tram rail_urban rail rail_electric pedestrian ship" speed="13.89" length="19.01" shape="1840.20,6311.83 1832.42,6329.19"/>
    </edge>
    <edge id=":1733690271_2" function="internal">
        <lane id=":1733690271_2_0" index="0" disallow="tram rail_urban rail rail_electric pedestrian ship" speed="13.89" length="2.54" shape="1840.20,6311.83 1838.97,6312.68 1838.06,6312.76 1837.97,6312.66"/>
    </edge>
    <edge id=":1733690271_6" function="internal">
        <lane id=":1733690271_6_0" index="0" speed="13.89" length="2.28" shape="1837.97,6312.66 1837.44,6312.08 1837.13,6310.62"/>
    </edge>
    <edge id=":1733690271_3" function="internal">
        <lane id=":1733690271_3_0" index="0" disallow="tram rail_urban rail rail_electric pedestrian ship" speed="13.89" length="18.85" shape="1829.42,6327.82 1837.13,6310.62"/>
    </edge>
    <edge id=":1733690271_4" function="internal">
        <lane id=":1733690271_4_0" index="0" disallow="tram rail_urban rail rail_electric pedestrian ship" speed="13.89" length="3.35" shape="1829.42,6327.82 1830.82,6326.22 1832.03,6326.14"/>
    </edge>
    <edge id=":1733690271_5" function="internal">
        <lane id=":1733690271_5_0" index="0" disallow="tram rail_urban rail rail_electric pedestrian ship" speed="13.89" length="2.41" shape="1829.42,6327.82 1830.68,6327.04 1831.60,6327.00"/>
    </edge>
    <edge id=":1733690271_7" function="internal">
        <lane id=":1733690271_7_0" index="0" speed="13.89" length="8.35" shape="1832.03,6326.14 1832.89,6326.09 1835.62,6327.45 1839.03,6330.29"/>
    </edge>
    <edge id=":1733690271_8" function="internal">
        <lane id=":1733690271_8_0" index="0" speed="13.89" length="2.41" shape="1831.60,6327.00 1832.18,6327.72 1832.42,6329.19"/>
    </edge>
    <edge id=":1733690271_c0" function="crossing" crossingEdges="-549928646#0 549928646#0">
        <lane id=":1733690271_c0_0" index="0" allow="pedestrian" speed="1.00" length="6.50" width="4.00" shape="1834.90,6311.90 1840.95,6314.28"/>
    </edge>
    <edge id=":1733690271_c1" function="crossing" crossingEdges="549928646#1 -549928646#1">
        <lane id=":1733690271_c1_0" index="0" allow="pedestrian" speed="1.00" length="6.50" width="4.00" shape="1834.71,6328.03 1828.79,6325.34"/>
    </edge>
    <edge id=":1733690271_c2" function="crossing" crossingEdges="161392062">
        <lane id=":1733690271_c2_0" index="0" allow="pedestrian" speed="1.00" length="7.09" width="4.00" shape="1843.02,6327.34 1836.48,6330.06"/>
    </edge>
    <edge id=":1733690271_w0" function="walkingarea">
        <lane id=":1733690271_w0_0" index="0" allow="pedestrian" speed="1.00" length="10.52" width="4.00" shape="1843.79,6329.18 1843.50,6330.04 1843.79,6328.06 1843.64,6313.19 1841.78,6312.46 1840.68,6315.62 1840.26,6318.63 1840.43,6321.44 1841.19,6324.06 1842.53,6326.49"/>
    </edge>
    <edge id=":1733690271_w1" function="walkingarea">
        <lane id=":1733690271_w1_0" index="0" allow="pedestrian" speed="1.00" length="11.94" width="4.00" shape="1834.17,6313.76 1835.55,6310.00 1833.69,6309.26 1826.05,6326.29 1827.87,6327.12 1827.96,6327.16 1829.61,6323.52"/>
    </edge>
    <edge id=":1733690271_w2" function="walkingarea">
        <lane id=":1733690271_w2_0" index="0" allow="pedestrian" speed="1.00" length="2.20" width="4.00" shape="1833.88,6329.85 1833.97,6329.89 1835.79,6330.72 1837.25,6331.91 1836.89,6330.52 1836.00,6329.86 1835.25,6329.46 1834.65,6329.32 1834.19,6329.45"/>
    </edge>
    <edge id=":1733690277_0" function="internal">
        <lane id=":1733690277_0_0" index="0" disallow="tram rail_urban rail rail_electric pedestrian ship" speed="13.89" length="20.71" shape="2314.59,6248.86 2309.16,6246.60 2305.14,6245.78 2300.98,6246.09 2295.16,6247.25"/>
        <lane id=":1733690277_0_1" index="1" disallow="tram rail_urban rail rail_electric pedestrian ship" speed="13.89" length="20.71" shape="2314.59,6248.86 2309.04,6246.04 2304.93,6244.08 2300.62,6243.30 2294.49,6244.02"/>
    </edge>
    <edge id=":1733690277_2" function="internal">
        <lane id=":1733690277_2_0" index="0" disallow="tram rail_urban rail rail_electric pedestrian ship" speed="13.89" length="19.52" shape="2314.28,6243.04 2295.16,6247.25"/>
        <lane id=":1733690277_2_1" index="1" disallow="tram rail_urban rail rail_electric pedestrian ship" speed="13.89" length="19.52" shape="2313.56,6239.82 2294.49,6244.02"/>
        <lane id=":1733690277_2_2" index="2" disallow="tram rail_urban rail rail_electric pedestrian ship" speed="13.89" length="19.52" shape="2312.85,6236.59 2293.81,6240.79"/>
        <lane id=":1733690277_2_3" index="3" disallow="tram rail_urban rail rail_electric pedestrian ship" speed="13.89" length="19.52" shape="2312.14,6233.37 2293.13,6237.56"/>
    </edge>
    <edge id=":1733690277_c0" function="crossing" crossingEdges="4902474">
        <lane id=":1733690277_c0_0" index="0" allow="pedestrian" speed="1.00" length="3.20" width="4.00" shape="2313.45,6246.57 2312.10,6249.47"/>
    </edge>
    <edge id=":1733690277_w0" function="walkingarea">