<?xml version="1.0" encoding="UTF-8"?>

<!-- generated on Mon Jan 15 22:06:20 2018 by SUMO polyconvert Version 0.30.0
<?xml version="1.0" encoding="UTF-8"?>

<configuration xmlns:xsi="http://www.w3.org/2001/XMLSchema-instance" xsi:noNamespaceSchemaLocation="http://sumo.dlr.de/xsd/polyconvertConfiguration.xsd">

    <input>
        <net-file value="/media/jefferson/Dados/workspace/gtracker/vanet/sp/sp.net.xml"/>
        <osm-files value="/media/jefferson/Dados/workspace/gtracker/vanet/sp/sp_bbox.osm.xml"/>
        <osm.keep-full-type value="true"/>
        <type-file value="/media/jefferson/Dados/workspace/sumo-0.30.0/data/typemap/osmPolyconvert.typ.xml"/>
    </input>

    <output>
        <output-file value="/media/jefferson/Dados/workspace/gtracker/vanet/sp/sp.poly.xml"/>
    </output>

    <processing>
        <poi-layer-offset value="5"/>
    </processing>

    <report>
        <verbose value="true"/>
    </report>

</configuration>
-->

<additional xmlns:xsi="http://www.w3.org/2001/XMLSchema-instance" xsi:noNamespaceSchemaLocation="http://sumo.dlr.de/xsd/additional_file.xsd">
    <location netOffset="-320207.34,2621997.52" convBoundary="-1872.68,-0.00,7992.56,18978.43" origBoundary="-46.781047,-23.699719,-46.685046,-23.527568" projParameter="+proj=utm +zone=23 +ellps=WGS84 +datum=WGS84 +units=m +no_defs"/>

    <poly id="122735121" type="landuse.construction" color="194,194,130" fill="1" layer="-3.00" shape="3993.97,6491.88 4006.86,6512.00 4156.00,6694.78 4167.73,6691.05 4223.07,6585.89 4221.60,6579.33 4141.36,6499.66 4063.36,6455.56 4048.90,6481.13 4021.08,6466.88 3993.97,6491.88"/>
    <poly id="122735122" type="landuse.residential" color="235,235,227" fill="1" layer="-3.00" shape="6624.57,6710.10 6586.49,6639.82 6490.17,6697.72 6384.22,6761.42 6299.68,6812.23 6377.70,6864.64 6624.57,6710.10"/>
    <poly id="122735123" type="amenity.festival_grounds" color="237,199,199" fill="1" layer="-1.00" shape="3985.12,5577.38 3950.40,5548.62 3925.63,5528.10 3917.39,5537.26 3891.97,5587.43 3877.92,5628.12 3867.93,5653.58 3863.36,5665.22 3851.57,5707.97 3843.52,5745.07 3837.60,5772.71 4079.05,5773.70 4079.99,5763.58 4080.44,5758.87 4082.86,5701.24 4083.50,5695.37 4084.36,5687.42 4067.91,5682.76 4031.20,5672.36 3933.15,5644.58 3959.10,5604.09 3985.12,5577.38"/>
    <poly id="122735123#1" type="tourism.attraction" color="207,245,201" fill="1" layer="-2.00" shape="3985.12,5577.38 3950.40,5548.62 3925.63,5528.10 3917.39,5537.26 3891.97,5587.43 3877.92,5628.12 3867.93,5653.58 3863.36,5665.22 3851.57,5707.97 3843.52,5745.07 3837.60,5772.71 4079.05,5773.70 4079.99,5763.58 4080.44,5758.87 4082.86,5701.24 4083.50,5695.37 4084.36,5687.42 4067.91,5682.76 4031.20,5672.36 3933.15,5644.58 3959.10,5604.09 3985.12,5577.38"/>
    <poly id="122735124" type="amenity.college" color="237,199,199" fill="1" layer="-1.00" shape="4227.99,5775.61 4109.47,5700.52 4102.92,5688.94 4101.79,5681.07 4110.76,5643.68 4142.61,5592.26 4275.66,5663.93 4227.99,5775.61"/>
    <poly id="122735125" type="amenity.parking" color="184,184,179" fill="1" layer="-1.00" shape="4063.36,6455.56 3986.19,6414.13 3986.63,6406.36 3943.88,6400.04 3941.00,6404.74 3993.97,6491.88 4021.08,6466.88 4048.90,6481.13 4063.36,6455.56"/>
    <poly id="122735126" type="amenity.exhibition_centre" color="237,199,199" fill="1" layer="-1.00" shape="4638.20,5497.86 4550.80,5446.94 4513.50,5425.69 4509.59,5429.66 4488.74,5448.31 4466.57,5449.19 4455.55,5446.79 4443.90,5439.19 4434.97,5429.33 4425.90,5411.30 4419.19,5401.04 4409.30,5392.84 4398.01,5386.20 4385.42,5384.16 4382.71,5441.83 4373.70,5510.87 4356.09,5643.75 4337.21,5775.50 4572.62,5778.98 4568.99,5804.91 4618.88,5805.84 4638.88,5674.01 4620.57,5661.33 4638.20,5497.86"/>
    <poly id="122735126#1" type="landuse.commercial" color="209,209,204" fill="1" layer="-3.00" shape="4638.20,5497.86 4550.80,5446.94 4513.50,5425.69 4509.59,5429.66 4488.74,5448.31 4466.57,5449.19 4455.55,5446.79 4443.90,5439.19 4434.97,5429.33 4425.90,5411.30 4419.19,5401.04 4409.30,5392.84 4398.01,5386.20 4385.42,5384.16 4382.71,5441.83 4373.70,5510.87 4356.09,5643.75 4337.21,5775.50 4572.62,5778.98 4568.99,5804.91 4618.88,5805.84 4638.88,5674.01 4620.57,5661.33 4638.20,5497.86"/>
    <poly id="122735134" type="leisure.park" color="207,245,201" fill="1" layer="-2.00" shape="4315.48,5821.56 4320.22,5777.50 4297.76,5777.85 4289.41,5815.20 4315.48,5821.56"/>
    <poly id="122735137" type="leisure.park" color="207,245,201" fill="1" layer="-2.00" shape="4471.31,5913.53 4465.72,5945.31 4457.84,5914.24 4471.31,5913.53"/>
    <poly id="122735139" type="leisure.park" color="207,245,201" fill="1" layer="-2.00" shape="5061.90,6246.57 5147.90,6257.04 5033.67,6281.52 5061.90,6246.57"/>
    <poly id="122735141" type="leisure.park" color="207,245,201" fill="1" layer="-2.00" shape="5518.24,5864.46 5529.38,5867.37 5535.28,5869.50 5535.60,5869.77 5535.84,5870.11 5535.99,5870.47 5536.03,5870.69 5535.95,5872.26 5535.81,5873.24 5535.67,5873.78 5535.37,5874.59 5533.98,5876.74 5533.69,5876.98 5532.89,5877.50 5532.11,5877.91 5514.53,5881.11 5513.57,5879.88 5512.89,5878.58 5512.82,5878.35 5514.86,5870.58 5516.01,5866.72 5516.63,5865.38 5516.99,5864.96 5517.13,5864.85 5517.93,5864.52 5518.24,5864.46"/>
    <poly id="122735144" type="leisure.park" color="207,245,201" fill="1" layer="-2.00" shape="4838.05,6515.90 4813.91,6480.83 4866.92,6474.61 4838.05,6515.90"/>
    <poly id="122735145" type="leisure.park" color="207,245,201" fill="1" layer="-2.00" shape="4382.50,5930.91 4381.72,5936.73 4380.78,5945.52 4377.25,5977.07 4392.82,5975.42 4385.29,5944.00 4382.50,5930.91"/>
    <poly id="122735147" type="leisure.park" color="207,245,201" fill="1" layer="-2.00" shape="5176.74,6920.21 5176.49,6941.87 5176.48,6943.33 5172.46,6939.70 5161.87,6931.36 5161.57,6930.92 5161.39,6929.83 5163.36,6928.38 5176.74,6920.21"/>
    <poly id="122735148" type="leisure.park" color="207,245,201" fill="1" layer="-2.00" shape="4653.23,5659.90 4654.23,5657.90 4655.35,5657.05 4655.64,5657.06 4656.42,5657.90 4658.43,5662.10 4666.08,5697.73 4662.71,5697.72 4658.81,5697.72 4652.67,5697.72 4648.06,5699.26 4653.23,5659.90"/>
    <poly id="122735149" type="leisure.park" color="207,245,201" fill="1" layer="-2.00" shape="5536.67,5913.92 5533.25,5969.18 5522.85,6042.28 5451.99,6180.88 5448.09,6180.80 5445.75,6176.98 5506.77,5914.78 5534.85,5905.68 5536.67,5913.92"/>
    <poly id="122735175" type="landuse.commercial" color="209,209,204" fill="1" layer="-3.00" shape="4164.57,5521.59 4141.42,5561.53 4113.03,5610.55 4095.98,5639.97 4084.36,5687.42 4067.91,5682.76 4031.20,5672.36 3933.15,5644.58 3959.10,5604.09 3985.12,5577.38 3950.40,5548.62 3925.63,5528.10 3963.70,5475.37 4017.78,5400.45 4164.57,5521.59"/>
    <poly id="122735208" type="waterway.stream" color="181,209,209" fill="0" layer="-4.00" shape="4668.29,5504.86 4515.66,5411.49"/>
    <poly id="122735209" type="waterway.stream" color="181,209,209" fill="0" layer="-4.00" shape="4323.31,5797.94 4347.27,5639.62 4374.37,5350.63"/>
    <poly id="122735210" type="building.yes" color="255,230,230" fill="1" layer="-1.00" shape="4107.58,5582.75 4101.26,5590.29 4092.09,5582.71 4059.49,5621.64 4065.60,5625.99 4061.79,5629.62 4068.31,5633.40 4071.66,5632.43 4079.09,5632.05 4081.97,5628.75 4109.10,5596.35 4105.34,5593.23 4108.50,5589.45 4111.72,5592.12 4114.66,5588.62 4107.58,5582.75"/>
    <poly id="122735211" type="amenity.parking" color="184,184,179" fill="1" layer="-1.00" shape="4091.50,5515.89 4032.32,5580.99 3965.26,5533.73 3960.79,5538.20 3950.40,5548.62 3985.12,5577.38 3959.10,5604.09 3978.62,5617.14 3999.20,5590.04 4057.68,5636.65 4033.92,5665.23 4031.20,5672.36 4067.91,5682.76 4075.42,5660.40 4083.51,5647.95 4068.31,5633.40 4061.79,5629.62 4065.60,5625.99 4059.49,5621.64 4092.09,5582.71 4101.26,5590.29 4107.58,5582.75 4114.66,5588.62 4134.55,5557.12 4154.95,5524.82 4080.28,5464.39 4076.04,5460.95 4053.77,5490.93 4091.50,5515.89"/>
    <poly id="122735213" type="building.yes" color="255,230,230" fill="1" layer="-1.00" shape="3999.79,5628.66 4016.17,5608.22 4000.48,5595.81 3984.12,5616.26 3999.79,5628.66"/>
    <poly id="122735215" type="building.yes" color="255,230,230" fill="1" layer="-1.00" shape="4008.23,5497.58 4052.20,5444.27 4069.78,5458.61 4025.81,5511.92 4008.23,5497.58"/>
    <poly id="122735216" type="building.yes" color="255,230,230" fill="1" layer="-1.00" shape="3956.40,5626.39 3967.41,5612.58 3992.46,5632.31 3981.46,5646.12 3956.40,5626.39"/>
    <poly id="122735217" type="building.yes" color="255,230,230" fill="1" layer="-1.00" shape="4000.32,5637.60 4024.08,5609.02 4057.68,5636.65 4033.92,5665.23 4000.32,5637.60"/>
    <poly id="122735220" type="amenity.parking" color="184,184,179" fill="1" layer="-1.00" shape="4339.98,5611.50 4320.22,5777.50 4297.76,5777.85 4236.12,5778.81 4227.99,5775.61 4275.66,5663.93 4142.61,5592.26 4182.12,5524.45 4339.98,5611.50"/>
    <poly id="122735221" type="building.yes" color="255,230,230" fill="1" layer="-1.00" shape="4520.07,5534.69 4614.95,5547.14 4600.42,5669.38 4538.08,5660.54 4540.00,5647.49 4507.37,5643.33 4511.06,5611.31 4507.74,5579.81 4517.86,5553.46 4520.07,5534.69"/>
    <poly id="122735222" type="amenity.parking" color="184,184,179" fill="1" layer="-1.00" shape="3933.15,5644.58 3959.10,5604.09 3985.12,5577.38 3950.40,5548.62 3925.63,5528.10 3917.39,5537.26 3891.97,5587.43 3877.92,5628.12 3928.84,5643.30 3933.15,5644.58"/>
    <poly id="123803607" type="leisure.park" color="207,245,201" fill="1" layer="-2.00" shape="6105.62,5657.41 6116.66,5649.94 6129.31,5641.40 6142.18,5661.30 6154.48,5680.32 6142.38,5687.59 6129.89,5695.11 6117.57,5675.81 6105.62,5657.41"/>
    <poly id="123803627" type="amenity.hospital" color="237,199,199" fill="1" layer="-1.00" shape="5940.86,5440.64 5926.74,5417.91 5848.57,5465.93 5862.71,5488.66 5878.60,5478.88 5886.32,5490.81 5947.54,5451.27 5940.86,5440.64"/>
    <poly id="126123638" type="building.yes" color="255,230,230" fill="1" layer="-1.00" shape="6413.34,6810.77 6413.71,6820.46 6399.56,6820.84 6378.50,6810.86 6371.66,6797.41 6380.84,6793.32 6388.12,6804.78 6398.66,6809.78 6413.34,6810.77"/>
    <poly id="143306949" type="leisure.park" color="207,245,201" fill="1" layer="-2.00" shape="424.54,6554.34 414.61,6534.68 449.70,6422.38 490.89,6410.92 516.15,6404.69 531.61,6394.01 537.77,6382.65 550.18,6352.32 548.78,6333.25 543.58,6310.87 534.21,6271.57 516.43,6221.87 429.56,6058.01 388.09,6065.16 372.89,6054.64 365.66,6046.33 342.14,6044.40 329.01,6044.24 316.04,6048.49 302.88,6050.51 297.11,6012.82 299.75,5975.85 303.15,5966.09 306.56,5955.80 416.39,5927.21 489.40,5909.60 507.54,5904.39 524.33,5936.22 533.18,6017.43 586.68,6117.68 590.15,6129.65 548.93,6143.29 570.50,6258.40 591.57,6343.08 597.41,6357.85 610.59,6355.29 606.92,6412.89 612.87,6436.96 612.77,6471.21 607.34,6485.88 643.53,6524.97 631.82,6541.71 598.35,6575.53 552.22,6606.04 523.26,6600.79 424.54,6554.34"/>
    <poly id="143331524" type="leisure.pitch" color="207,245,201" fill="1" layer="-2.00" shape="572.44,6420.10 575.03,6381.83 601.28,6383.59 598.70,6421.86 572.44,6420.10"/>
    <poly id="143331526" type="amenity.college" color="237,199,199" fill="1" layer="-1.00" shape="558.26,5874.53 485.39,5808.37 444.21,5845.91 441.04,5854.64 441.47,5864.43 445.48,5875.86 452.70,5885.26 463.02,5891.91 475.84,5899.65 484.56,5903.56 510.37,5896.26 529.65,5886.15 558.26,5874.53"/>
    <poly id="143331526#1" type="building.school" color="255,230,230" fill="1" layer="-1.00" shape="558.26,5874.53 485.39,5808.37 444.21,5845.91 441.04,5854.64 441.47,5864.43 445.48,5875.86 452.70,5885.26 463.02,5891.91 475.84,5899.65 484.56,5903.56 510.37,5896.26 529.65,5886.15 558.26,5874.53"/>
    <poly id="143331528" type="amenity.marketplace" color="237,199,199" fill="1" layer="-1.00" shape="613.95,5840.92 522.92,5766.33 486.30,5806.15 565.06,5873.03 585.98,5863.50 599.53,5856.53 613.95,5840.92"/>
    <poly id="143331528#1" type="building.commercial" color="255,230,230" fill="1" layer="-1.00" shape="613.95,5840.92 522.92,5766.33 486.30,5806.15 565.06,5873.03 585.98,5863.50 599.53,5856.53 613.95,5840.92"/>
    <poly id="143331531" type="leisure.recreation_ground" color="207,245,201" fill="1" layer="-2.00" shape="568.53,6478.45 594.61,6481.10 598.69,6441.17 572.62,6438.53 568.53,6478.45"/>
    <poly id="143331538" type="landuse.residential" color="235,235,227" fill="1" layer="-3.00" shape="615.64,5570.44 684.87,5572.96 687.17,5441.91 616.12,5381.95 616.08,5394.15 615.64,5570.44"/>
    <poly id="143331539" type="building.apartments" color="255,230,230" fill="1" layer="-1.00" shape="684.87,5572.96 687.17,5441.91 798.66,5527.03 793.67,5577.04 684.87,5572.96"/>
    <poly id="143331543" type="amenity.marketplace" color="237,199,199" fill="1" layer="-1.00" shape="627.01,5596.40 519.28,5591.00 518.38,5624.21 529.01,5624.96 531.04,5613.09 592.83,5615.28 597.69,5642.19 625.32,5642.15 627.01,5596.40"/>
    <poly id="143331543#1" type="building.commercial" color="255,230,230" fill="1" layer="-1.00" shape="627.01,5596.40 519.28,5591.00 518.38,5624.21 529.01,5624.96 531.04,5613.09 592.83,5615.28 597.69,5642.19 625.32,5642.15 627.01,5596.40"/>
    <poly id="143331543#2" type="shop.mall" color="237,199,255" fill="1" layer="-1.00" shape="627.01,5596.40 519.28,5591.00 518.38,5624.21 529.01,5624.96 531.04,5613.09 592.83,5615.28 597.69,5642.19 625.32,5642.15 627.01,5596.40"/>
    <poly id="143331553" type="building.commercial" color="255,230,230" fill="1" layer="-1.00" shape="471.29,5558.32 469.01,5476.11 431.48,5412.51 565.76,5332.86 577.31,5344.43 574.75,5352.28 593.15,5369.38 591.40,5378.62 606.87,5392.90 616.08,5394.15 615.64,5570.44 538.30,5560.78 471.29,5558.32"/>
    <poly id="143331553#1" type="shop.mall" color="237,199,255" fill="1" layer="-1.00" shape="471.29,5558.32 469.01,5476.11 431.48,5412.51 565.76,5332.86 577.31,5344.43 574.75,5352.28 593.15,5369.38 591.40,5378.62 606.87,5392.90 616.08,5394.15 615.64,5570.44 538.30,5560.78 471.29,5558.32"/>
    <poly id="143416468" type="landuse.residential" color="235,235,227" fill="1" layer="-3.00" shape="538.38,5888.97 604.24,5861.69 617.12,5850.21 656.89,5865.94 662.19,5880.69 693.54,5898.72 702.37,5906.77 712.54,5925.95 726.35,5959.87 721.34,5966.87 736.59,5986.43 703.25,6001.10 689.05,6010.59 665.80,6020.78 648.83,6031.32 615.89,6039.08 597.66,6042.25 583.33,6050.25 563.66,6058.03 547.49,6026.40 531.74,5938.99 538.38,5888.97"/>
    <poly id="143416469" type="landuse.residential" color="235,235,227" fill="1" layer="-3.00" shape="233.96,6117.63 306.39,6089.90 298.66,6065.09 291.51,6010.25 292.99,5991.54 296.01,5968.17 296.63,5963.29 244.15,5957.19 207.39,6009.54 211.81,6049.32 213.68,6075.47 215.07,6096.17 226.97,6094.37 233.96,6117.63"/>
    <poly id="143416471" type="landuse.residential" color="235,235,227" fill="1" layer="-3.00" shape="244.82,5947.95 241.13,5935.93 365.96,5875.64 386.41,5928.06 296.77,5951.31 244.82,5947.95"/>
    <poly id="143416473" type="building.yes" color="255,230,230" fill="1" layer="-1.00" shape="660.61,5782.08 662.30,5767.90 657.30,5767.80 657.20,5726.14 737.81,5729.89 737.13,5798.43 733.54,5784.15 696.24,5782.91 660.61,5782.08"/>
    <poly id="143416473#1" type="shop.supermarket" color="237,199,255" fill="1" layer="-1.00" shape="660.61,5782.08 662.30,5767.90 657.30,5767.80 657.20,5726.14 737.81,5729.89 737.13,5798.43 733.54,5784.15 696.24,5782.91 660.61,5782.08"/>
    <poly id="143416475" type="landuse.residential" color="235,235,227" fill="1" layer="-3.00" shape="403.88,6288.11 521.28,6239.91 516.38,6224.61 502.12,6197.91 429.21,6060.27 406.87,6063.30 393.14,6065.95 382.66,6062.42 367.24,6051.79 358.77,6047.88 337.19,6044.88 322.63,6046.96 303.19,6052.09 303.49,6066.27 314.17,6094.13 332.60,6139.75 358.24,6191.77 403.88,6288.11"/>
    <poly id="143416476" type="landuse.residential" color="235,235,227" fill="1" layer="-3.00" shape="324.68,6573.79 325.01,6636.39 340.04,6660.52 363.39,6675.51 391.81,6678.58 426.85,6664.53 486.45,6626.07 468.01,6612.24 445.29,6603.03 356.06,6558.94 324.68,6573.79"/>
    <poly id="143416479" type="landuse.residential" color="235,235,227" fill="1" layer="-3.00" shape="407.40,6289.03 521.27,6241.16 533.97,6274.41 541.39,6311.93 547.12,6332.68 547.46,6352.28 535.42,6383.37 525.03,6395.54 516.20,6401.42 449.75,6419.66 452.98,6408.34 454.22,6400.14 433.71,6343.80 407.40,6289.03"/>
    <poly id="143416480" type="landuse.residential" color="235,235,227" fill="1" layer="-3.00" shape="254.07,6262.67 354.85,6199.90 307.08,6091.86 232.81,6121.97 236.60,6169.92 242.76,6203.20 254.07,6262.67"/>
    <poly id="143416482" type="landuse.residential" color="235,235,227" fill="1" layer="-3.00" shape="410.05,6531.29 358.01,6445.20 447.26,6398.39 448.26,6406.58 410.05,6531.29"/>
    <poly id="143416483" type="landuse.residential" color="235,235,227" fill="1" layer="-3.00" shape="663.66,6250.29 760.04,6233.19 771.57,6230.60 779.80,6229.08 796.85,6222.21 842.62,6195.01 818.43,6172.72 796.84,6147.42 751.83,6157.76 652.65,6166.87 624.08,6175.24 663.66,6250.29"/>
    <poly id="143416490" type="building.yes" color="255,230,230" fill="1" layer="-1.00" shape="737.13,5798.43 737.81,5729.89 784.88,5730.92 783.67,5805.49 788.82,5814.34 788.22,5841.96 756.06,5840.68 757.20,5819.77 737.13,5798.43"/>
    <poly id="143416490#1" type="shop.hardware" color="237,199,255" fill="1" layer="-1.00" shape="737.13,5798.43 737.81,5729.89 784.88,5730.92 783.67,5805.49 788.82,5814.34 788.22,5841.96 756.06,5840.68 757.20,5819.77 737.13,5798.43"/>
    <poly id="143416493" type="landuse.residential" color="235,235,227" fill="1" layer="-3.00" shape="665.23,6256.30 765.47,6237.61 777.53,6236.13 788.51,6232.99 848.05,6198.35 859.08,6204.80 864.36,6221.19 871.82,6238.15 878.06,6264.35 880.13,6274.18 849.32,6286.86 829.49,6297.51 807.30,6320.64 788.21,6360.13 771.59,6465.53 729.57,6455.21 703.36,6449.99 685.86,6448.15 685.62,6379.02 682.68,6351.22 679.81,6316.89 678.14,6305.66 665.23,6256.30"/>
    <poly id="143416496" type="landuse.residential" color="235,235,227" fill="1" layer="-3.00" shape="645.54,6522.76 665.90,6499.83 679.71,6458.41 680.23,6403.11 674.60,6326.29 673.36,6307.02 658.49,6256.43 595.09,6129.70 551.65,6144.95 572.14,6258.97 591.96,6339.21 598.33,6355.63 610.94,6353.06 609.11,6412.91 614.31,6435.84 615.01,6467.41 609.86,6485.32 645.54,6522.76"/>
    <poly id="143417578" type="amenity.townhall" color="237,199,199" fill="1" layer="-1.00" shape="624.27,5758.68 625.85,5711.00 557.78,5710.99 558.70,5647.24 517.99,5648.05 483.22,5654.91 504.67,5695.78 518.43,5710.67 533.70,5724.31 552.36,5741.61 566.51,5745.84 588.44,5750.24 624.27,5758.68"/>
    <poly id="143417578#1" type="building.yes" color="255,230,230" fill="1" layer="-1.00" shape="624.27,5758.68 625.85,5711.00 557.78,5710.99 558.70,5647.24 517.99,5648.05 483.22,5654.91 504.67,5695.78 518.43,5710.67 533.70,5724.31 552.36,5741.61 566.51,5745.84 588.44,5750.24 624.27,5758.68"/>
    <poly id="143426367" type="leisure.sports_centre" color="207,245,201" fill="1" layer="-2.00" shape="1020.18,5508.67 986.12,5398.64 974.99,5369.65 970.97,5325.74 971.71,5280.36 969.11,5267.81 959.40,5256.81 953.02,5241.49 934.56,5229.29 920.50,5215.50 907.65,5192.50 890.56,5157.45 867.66,5106.55 844.99,5079.60 831.10,5052.77 817.73,5027.02 808.64,5009.50 805.67,4983.88 806.87,4961.79 818.13,4954.75 861.37,4942.26 955.52,4907.59 1008.17,4888.44 1056.96,5051.18 1068.87,5097.50 1118.09,5272.78 1143.04,5367.36 1151.51,5391.41 1157.38,5403.46 1162.11,5419.85 1168.32,5434.84 1172.77,5442.84 1175.34,5457.02 1174.43,5472.47 1163.71,5467.22 1150.65,5461.61 1133.05,5468.48 1117.13,5471.55 1107.81,5472.52 1020.18,5508.67"/>
    <poly id="143426380" type="landuse.retail" color="194,194,130" fill="1" layer="-3.00" shape="796.21,5575.38 799.90,5528.83 829.17,5543.23 860.33,5551.63 885.32,5556.41 884.45,5565.57 796.21,5575.38"/>
    <poly id="143426388" type="leisure.park" color="207,245,201" fill="1" layer="-2.00" shape="995.08,5601.30 1027.28,5544.60 972.67,5568.24 952.91,5574.29 964.11,5586.78 975.88,5595.69 989.29,5605.15 995.08,5601.30"/>
    <poly id="144425824" type="landuse.residential" color="235,235,227" fill="1" layer="-3.00" shape="357.94,6439.36 445.65,6395.65 407.87,6308.09 310.22,6359.09 357.94,6439.36"/>
    <poly id="144425826" type="landuse.residential" color="235,235,227" fill="1" layer="-3.00" shape="402.51,6296.03 302.83,6349.81 255.70,6265.40 356.08,6202.41 402.51,6296.03"/>
    <poly id="144425828" type="landuse.residential" color="235,235,227" fill="1" layer="-3.00" shape="739.45,5989.06 760.64,6020.16 768.14,6033.31 774.72,6076.40 786.26,6117.35 796.87,6145.24 767.22,6152.50 746.92,6156.60 651.58,6165.23 623.00,6173.59 565.32,6060.30 579.03,6054.41 589.36,6049.23 597.08,6044.97 606.40,6043.46 621.37,6039.69 633.99,6037.13 648.26,6033.49 667.98,6021.35 685.71,6014.36 703.23,6003.28 739.45,5989.06"/>
    <poly id="144425830" type="landuse.residential" color="235,235,227" fill="1" layer="-3.00" shape="515.87,5761.35 501.83,5745.40 489.93,5733.82 475.84,5722.22 373.98,5759.20 369.80,5755.20 344.36,5764.82 398.34,5915.16 405.66,5909.67 414.32,5906.65 421.98,5906.75 430.75,5905.23 439.12,5903.56 446.66,5902.70 456.62,5905.40 457.65,5910.31 481.25,5905.16 454.50,5888.10 449.22,5884.09 443.84,5876.40 440.52,5867.79 439.12,5860.02 440.31,5851.86 442.00,5847.53 483.41,5807.35 486.20,5803.03 519.08,5767.37 515.87,5761.35"/>
    <poly id="161389759" type="amenity.love_hotel" color="237,199,199" fill="1" layer="-1.00" shape="3233.48,6029.83 3222.32,5995.83 3209.63,5971.54 3198.30,5960.30 3185.86,5950.66 3176.20,5958.11 3183.58,5984.04 3170.33,5989.26 3191.58,6054.98 3233.48,6029.83"/>
    <poly id="161389759#1" type="building.yes" color="255,230,230" fill="1" layer="-1.00" shape="3233.48,6029.83 3222.32,5995.83 3209.63,5971.54 3198.30,5960.30 3185.86,5950.66 3176.20,5958.11 3183.58,5984.04 3170.33,5989.26 3191.58,6054.98 3233.48,6029.83"/>
    <poly id="161389760" type="shop.bakery" color="237,199,255" fill="1" layer="-1.00" shape="1815.57,6655.52 1810.68,6649.52 1807.09,6640.36 1803.89,6625.59 1805.11,6609.18 1824.99,6609.79 1835.29,6613.34 1826.48,6633.07 1827.23,6646.34 1815.57,6655.52"/>
    <poly id="161389767" type="waterway.stream" color="181,209,209" fill="0" layer="-4.00" shape="1047.10,5921.80 1073.79,5932.76 1100.85,5942.38 1128.31,5946.10 1169.36,5949.13 1201.38,5955.09 1230.80,5965.58 1260.46,5983.17 1313.05,6014.37 1329.37,6027.91 1343.61,6042.95 1363.63,6058.39 1440.33,6103.57 1476.33,6131.19 1510.76,6162.84 1539.76,6192.92 1551.91,6212.83 1560.71,6228.97 1572.26,6256.97 1579.03,6286.09 1598.36,6475.34 1605.66,6503.80 1616.29,6522.83 1629.98,6542.59 1654.48,6566.53 1680.45,6580.69 1707.00,6589.80 1728.19,6592.59 1812.16,6599.53 1843.10,6599.50 1862.63,6610.28 1897.08,6626.06 2038.75,6691.61 2085.03,6711.60 2165.45,6745.33 2233.41,6783.82 2274.96,6802.39 2312.52,6813.15 2345.93,6816.42 2381.64,6812.47 2452.87,6792.06 2474.06,6781.00 2490.87,6767.03 2499.36,6753.45 2507.78,6730.76"/>
    <poly id="161389768" type="leisure.park" color="207,245,201" fill="1" layer="-2.00" shape="2161.80,6706.95 2157.23,6717.75 2079.02,6685.03 2066.56,6679.40 2069.43,6673.70 2076.80,6666.31 2081.71,6657.14 2091.26,6655.63 2094.53,6662.51 2099.27,6667.48 2141.92,6687.04 2150.35,6692.79 2156.66,6699.59 2161.80,6706.95"/>
    <poly id="161699097" type="waterway.river" color="181,209,209" fill="0" layer="-4.00" shape="3705.67,6053.59 3711.58,6097.90 3752.29,6268.51 3809.95,6413.35 3883.27,6539.46 4184.16,6909.34 4959.30,7850.27 5018.50,7921.10 5130.63,8051.23 5216.42,8129.25 5327.35,8213.08 5447.00,8288.45 5577.05,8343.71 5819.48,8435.81 5920.09,8481.47 5998.72,8529.00 6099.18,8606.04 6157.08,8673.67 6208.55,8756.01 6235.11,8817.03"/>
    <poly id="162043148" type="landuse.commercial" color="209,209,204" fill="1" layer="-3.00" shape="3090.51,5517.29 3138.70,5585.26 3182.30,5653.90 3233.02,5728.28 3279.27,5794.10 3298.93,5788.66 3329.00,5788.32 3358.44,5785.12 3393.31,5765.68 3396.52,5764.49 3495.70,5727.91 3535.00,5720.58 3551.96,5722.92 3562.18,5729.16 3563.92,5667.25 3570.05,5625.63 3577.44,5561.50 3577.93,5520.36 3567.05,5454.21 3560.53,5422.58 3546.65,5400.00 3519.99,5376.58 3480.07,5346.10 3455.50,5324.53 3425.35,5278.05 3414.35,5268.47 3294.70,5329.67 3224.12,5384.14 3171.21,5436.69 3128.25,5476.61 3090.51,5517.29"/>
    <poly id="162043149" type="building.commercial" color="255,230,230" fill="1" layer="-1.00" shape="3457.05,5523.17 3463.37,5519.52 3462.61,5513.60 3500.19,5493.18 3505.80,5497.24 3510.69,5494.20 3507.21,5487.74 3503.11,5487.52 3481.39,5451.82 3482.46,5448.03 3478.72,5442.65 3473.19,5448.58 3434.78,5469.13 3432.69,5467.37 3426.16,5471.00 3455.09,5513.58 3453.82,5517.44 3457.05,5523.17"/>
    <poly id="162043150" type="building.commercial" color="255,230,230" fill="1" layer="-1.00" shape="3272.03,5507.56 3271.21,5503.35 3306.75,5481.68 3311.75,5485.50 3317.95,5481.76 3291.14,5431.51 3283.65,5434.75 3283.98,5437.01 3247.48,5458.70 3245.47,5457.11 3239.65,5462.23 3242.63,5467.35 3246.15,5467.73 3264.84,5503.39 3263.10,5506.21 3267.30,5511.39 3272.03,5507.56"/>
    <poly id="162043151" type="building.commercial" color="255,230,230" fill="1" layer="-1.00" shape="3357.05,5458.27 3363.72,5454.65 3362.46,5449.85 3400.46,5429.15 3404.08,5432.82 3406.40,5430.73 3409.86,5428.20 3406.67,5423.05 3401.92,5422.90 3382.98,5386.99 3385.39,5384.14 3380.85,5378.47 3375.30,5382.01 3375.23,5383.70 3337.77,5405.34 3336.02,5403.99 3329.27,5408.56 3333.14,5414.77 3335.19,5413.86 3354.85,5449.51 3354.12,5452.85 3357.05,5458.27"/>
    <poly id="162043152" type="building.commercial" color="255,230,230" fill="1" layer="-1.00" shape="3469.47,5642.68 3474.77,5638.26 3472.41,5633.21 3510.34,5612.72 3516.00,5616.20 3522.30,5612.06 3518.25,5605.93 3512.50,5605.22 3490.75,5570.30 3492.14,5566.96 3487.62,5559.26 3482.55,5562.19 3481.64,5565.03 3444.62,5586.65 3442.36,5585.30 3434.42,5590.95 3439.06,5596.21 3442.79,5596.10 3463.58,5629.90 3464.61,5636.26 3469.47,5642.68"/>
    <poly id="162043153" type="building.commercial" color="255,230,230" fill="1" layer="-1.00" shape="3356.32,5567.35 3405.87,5537.24 3379.88,5486.74 3330.34,5516.85 3356.32,5567.35"/>
    <poly id="162043154" type="building.commercial" color="255,230,230" fill="1" layer="-1.00" shape="3382.99,5690.43 3382.58,5686.49 3419.01,5664.97 3422.11,5668.03 3428.40,5662.72 3396.39,5611.88 3386.83,5618.14 3351.91,5638.79 3348.91,5637.46 3343.84,5641.68 3347.48,5647.11 3351.79,5647.72 3373.05,5683.85 3374.54,5689.58 3377.12,5694.21 3382.99,5690.43"/>
    <poly id="162043155" type="building.commercial" color="255,230,230" fill="1" layer="-1.00" shape="3285.70,5626.77 3285.86,5621.62 3292.05,5622.25 3327.55,5599.29 3323.24,5592.34 3317.77,5590.81 3298.19,5556.74 3301.23,5553.68 3296.05,5546.54 3290.19,5551.37 3290.56,5555.46 3257.21,5576.82 3254.53,5575.15 3249.65,5578.89 3253.58,5585.45 3256.38,5586.41 3276.56,5620.51 3277.67,5626.37 3280.96,5631.69 3285.70,5626.77"/>
    <poly id="162154118" type="leisure.pitch" color="207,245,201" fill="1" layer="-2.00" shape="3455.61,6882.75 3471.20,6849.90 3453.92,6841.78 3438.33,6874.63 3455.61,6882.75"/>
    <poly id="162154118#1" type="sport.tennis" color="79,230,125" fill="1" layer="-2.00" shape="3455.61,6882.75 3471.20,6849.90 3453.92,6841.78 3438.33,6874.63 3455.61,6882.75"/>
    <poly id="162154119" type="leisure.pitch" color="207,245,201" fill="1" layer="-2.00" shape="3471.85,6853.73 3484.56,6825.36 3501.86,6833.02 3489.14,6861.39 3471.85,6853.73"/>
    <poly id="162154119#1" type="sport.multi" color="79,230,125" fill="1" layer="-2.00" shape="3471.85,6853.73 3484.56,6825.36 3501.86,6833.02 3489.14,6861.39 3471.85,6853.73"/>
    <poly id="162154120" type="leisure.pitch" color="207,245,201" fill="1" layer="-2.00" shape="3453.47,6832.36 3467.26,6799.39 3450.61,6792.51 3436.83,6825.48 3453.47,6832.36"/>
    <poly id="162154120#1" type="sport.tennis" color="79,230,125" fill="1" layer="-2.00" shape="3453.47,6832.36 3467.26,6799.39 3450.61,6792.51 3436.83,6825.48 3453.47,6832.36"/>
    <poly id="162154121" type="leisure.pitch" color="207,245,201" fill="1" layer="-2.00" shape="3437.45,6868.53 3453.21,6836.51 3438.47,6829.33 3422.71,6861.36 3437.45,6868.53"/>
    <poly id="162154121#1" type="sport.tennis" color="79,230,125" fill="1" layer="-2.00" shape="3437.45,6868.53 3453.21,6836.51 3438.47,6829.33 3422.71,6861.36 3437.45,6868.53"/>
    <poly id="162154122" type="leisure.pitch" color="207,245,201" fill="1" layer="-2.00" shape="3456.99,6887.79 3473.90,6895.44 3487.84,6864.94 3470.94,6857.29 3456.99,6887.79"/>
    <poly id="162154122#1" type="sport.multi" color="79,230,125" fill="1" layer="-2.00" shape="3456.99,6887.79 3473.90,6895.44 3487.84,6864.94 3470.94,6857.29 3456.99,6887.79"/>
    <poly id="162154123" type="leisure.pitch" color="207,245,201" fill="1" layer="-2.00" shape="3472.91,6845.10 3487.69,6811.88 3470.21,6804.19 3455.43,6837.41 3472.91,6845.10"/>
    <poly id="162154123#1" type="sport.tennis" color="79,230,125" fill="1" layer="-2.00" shape="3472.91,6845.10 3487.69,6811.88 3470.21,6804.19 3455.43,6837.41 3472.91,6845.10"/>
    <poly id="17550022" type="amenity.parking" color="184,184,179" fill="1" layer="-1.00" shape="4182.12,5524.45 4252.32,5405.76 4355.10,5460.37 4340.20,5609.34 4339.98,5611.50 4182.12,5524.45"/>
    <poly id="17550086" type="amenity.parking" color="184,184,179" fill="1" layer="-1.00" shape="4373.70,5510.87 4382.71,5441.83 4386.53,5442.33 4565.08,5465.78 4624.03,5498.92 4619.53,5534.75 4512.11,5522.88 4498.50,5622.64 4482.23,5620.21 4469.25,5618.29 4482.61,5527.14 4373.70,5510.87"/>
    <poly id="17550355" type="building.yes" color="255,230,230" fill="1" layer="-1.00" shape="4353.38,5727.11 4367.85,5643.08 4383.22,5644.63 4421.82,5648.52 4422.74,5639.93 4443.52,5636.60 4462.05,5635.68 4477.63,5636.30 4494.93,5640.49 4507.37,5643.33 4540.00,5647.49 4538.08,5660.54 4600.42,5669.38 4618.52,5671.95 4605.14,5764.97 4353.38,5727.11"/>