<?xml version="1.0" encoding="UTF-8"?>

<!-- generated on Thu Jan  4 15:02:30 2018 by SUMO duarouter Version 0.30.0
<?xml version="1.0" encoding="UTF-8"?>

<configuration xmlns:xsi="http://www.w3.org/2001/XMLSchema-instance" xsi:noNamespaceSchemaLocation="http://sumo.dlr.de/xsd/duarouterConfiguration.xsd">

    <input>
        <net-file value="/media/jefferson/Dados/workspace/GoodsTracker/vanet/sp/sp.net.xml"/>
        <trip-files value="/media/jefferson/Dados/workspace/GoodsTracker/vanet/sp/sp.passenger.trips.xml"/>
    </input>

    <output>
        <output-file value="/media/jefferson/Dados/workspace/GoodsTracker/vanet/sp/sp.passenger.rou.xml"/>
    </output>

    <processing>
        <ignore-errors value="true"/>
    </processing>

    <time>
        <begin value="0"/>
        <end value="3600.0"/>
    </time>

    <report>
        <no-warnings value="true"/>
        <no-step-log value="true"/>
    </report>

</configuration>
-->

<routes xmlns:xsi="http://www.w3.org/2001/XMLSchema-instance" xsi:noNamespaceSchemaLocation="http://sumo.dlr.de/xsd/routes_file.xsd">
    <vType id="passenger" vClass="passenger"/>
    <vehicle id="pas0" type="passenger" depart="0.00">
        <route edges="-4774365#1 -4774365#0 550873590 550732345 550745968 550741745 550757841 550725735#0 550756710#0 550756710#1 550747490 4902378#0 4902378#1 549917967 319453543#0 27490680 -28788368#1 -28788368#0 28788368#0"/>
    </vehicle>
    <vehicle id="pas7" type="passenger" depart="21.00">
        <route edges="4902418#1 4902418#2 4902418#3 4902418#4 -4902451#1 -4902436#0 -549928646#1 -549928646#0 -28788362 4902394#0 4902394#1 4902394#2 4902394#3 4902394#4 4902394#5 386278913"/>
    </vehicle>
    <vehicle id="pas9" type="passenger" depart="27.00">
        <route edges="-4774404 -4774365#0 550873590 550732345 550745968 550741745 550757841 550725735#0 550756710#0 550756710#1 550747490 4902378#0 4902378#1 549917967 319453543#0 319453543#1 319453543#2 161392073#0 161392072 319453543#4 319453543#5 319453543#6 319453544 161392067 161392069#1 96097794 15968349"/>
    </vehicle>
    <vehicle id="pas10" type="passenger" depart="30.00">
        <route edges="-550867442#2 -550867442#1 -550867442#0 -229481708#2 -229481708#0 402922224 380438949#0 380438949#1 319447428#1 319447428#2 319447428#3 401773368 327956372 327956373#0 327956373#1 4902374#0 4902374#1 4902374#2 4902374#3 4902436#0 4902436#1 -4902428"/>
    </vehicle>
    <vehicle id="pas12" type="passenger" depart="36.00">
        <route edges="-4774404 -4774365#0 550873590 550732345 550745968 550741745 550757841 550725735#0 550756710#0 550756710#1 550747490 4902378#0 4902378#1 549917967 319453543#0 319453543#1 319453543#2 161392073#0 161392072 319453543#4 319453543#5 319453543#6 161389765 161392059#0 550860119#2 -550865716 -4734472 221893217#0 221893217#1 -511815820 -221893285#1 -221893285#0"/>
    </vehicle>
    <vehicle id="pas13" type="passenger" depart="39.00">
        <route edges="-4902399 4902418#2 4902418#3 4902418#4 -4902451#1 -4902436#0 4902416#0 4902416#2 161392064#3 161392064#4 161392064#5 319453543#0 319453543#1 319453543#2 161392073#0 161392072 319453543#4 319453543#5 319453543#6 161389765 161392059#0 550860119#2 -550865716 -4734472 221893217#0 -548651990#1 -548651990#0"/>
    </vehicle>
    <vehicle id="pas15" type="passenger" depart="45.00">
        <route edges="96097829#2 4523238 327754983 247833369#0 247833369#1 319447428#0 319447428#1 319447428#2 319447428#3 8148885#0 8148885#1 4559074#0 4559074#1 4559074#2 4559074#3 4559074#4 4559074#5 4559074#6 4559007 4902378#0 4902378#1 549917967 319453543#0 27490680 -28788368#1 -28788368#0 -28788371#0 28788370#1"/>
    </vehicle>
    <vehicle id="pas16" type="passenger" depart="48.00">
        <route edges="96097829#1 96097829#2 4523238 327754983 247833369#0 247833369#1 319447428#0 319447428#1 319447428#2 319447428#3 401773368 327956372 327956373#0 327956373#1 327956374 27570528#0 27570528#1 549928648#3 -28885070#1 28885070#1"/>
    </vehicle>
    <vehicle id="pas18" type="passenger" depart="54.00">
        <route edges="-28788368#1 28788368#1 -27490680 319453543#1 319453543#2 161392073#0 161392072 319453543#4 319453543#5 319453543#6 161389765 247833371#0 247833371#1-AddedOnRampEdge 247833371#1 161389762-AddedOnRampEdge 161389762 249870999"/>
    </vehicle>
    <vehicle id="pas21" type="passenger" depart="63.00">
        <route edges="473684643 -473684642#0 327754983 247833369#0 247833369#1 319447428#0 319447428#1 319447428#2 319447428#3 401773368 327956372 327956373#0 327956373#1 327956374 27570528#0 27570528#1 549928648#3 -28885070#1 28885070#1"/>
    </vehicle>
    <vehicle id="pas23" type="passenger" depart="69.00">
        <route edges="518473673 -550732345 -550873590 4774365#0 -4774365#0 550873590 550732345 550745968 550741745 550757841 550725735#0 4559084 550753287#0 550753287#1 550753287#2 550753287#3 550753287#4"/>
    </vehicle>
    <vehicle id="pas25" type="passenger" depart="75.00">
        <route edges="27570527#2 27570527#3 27570527#4 -340955662 -27803780#2 -28788366 -27840836 161392064#5 549345534 549815935 329013842 4559074#0 4559074#1 4559074#2 4559074#3 4559074#4 4559074#5 4559074#6 4559074#7 4559005#0 4559005#1 4559005#2 -550757841 -550741745 -550745968 -550732345 4877453 4877450"/>
    </vehicle>
    <vehicle id="pas26" type="passenger" depart="78.00">
        <route edges="-473684642#0 327754983 247833369#0 247833369#1 319447428#0 319447428#1 319447428#2 319447428#3 401773368 327956372 327956373#0 327956373#1 327956374 161392064#3"/>
    </vehicle>
    <vehicle id="pas27" type="passenger" depart="81.00">
        <route edges="96097829#0 96097829#1 96097829#2 4523238 327754983 247833369#0 247833369#1 319447428#0 319447428#1 319447428#2 319447428#3 8148885#0 8148885#1 4559074#0 4559074#1 4559074#2 4559074#3 4559074#4 4559074#5 4559074#6 4559074#7 4559005#0"/>
    </vehicle>
    <vehicle id="pas30" type="passenger" depart="90.00">
        <route edges="-4774404 -4774365#0 550873590 550732345 550745968 550741745 550757841 550725735#0 550756710#0 550756710#1 550747490 4902378#0 4902474 327956373#1 327956374 549928635 549928642#0 549928642#1 549928642#2 -4902441"/>
    </vehicle>
    <vehicle id="pas32" type="passenger" depart="96.00">
        <route edges="550712034 4806304#2 327754983 247833369#0 247833369#1 319447428#0 319447428#1 319447428#2 319447428#3 401773368 327956372 327956373#0"/>
    </vehicle>
    <vehicle id="pas33" type="passenger" depart="99.00">
        <route edges="229481708#2 -229481708#2 -229481708#0 402922224 380438949#0 380438949#1 319447428#1 319447428#2 319447428#3 401773368 327956372 327956373#0 327956373#1 4902374#0 4902374#1 4902374#2 4902374#3 4902436#0 4902436#1 4902421"/>
    </vehicle>
    <vehicle id="pas34" type="passenger" depart="102.00">
        <route edges="-27840841#1 -27840841#0 -27803780#2 -27803780#1 179109642#1 28788370#0 28788371#0 28788368#0 28788368#1 -27490680 319453543#1 319453543#2 161392073#0 161392072 319453543#4 319453543#5 319453543#6 161389765 247833371#0 247833371#1-AddedOnRampEdge 247833371#1 161389762-AddedOnRampEdge 161389762 249870999"/>
    </vehicle>
    <vehicle id="pas37" type="passenger" depart="111.00">
        <route edges="245546867 229481708#0 -229481708#0 402922224 380438949#0 380438949#1 319447428#1 319447428#2 319447428#3 401773368 327956372 327956373#0 327956373#1 4902374#0 4902374#1 4902374#2 4902374#3 4902436#0 4902436#1 -4902436#1"/>
    </vehicle>
    <vehicle id="pas46" type="passenger" depart="138.00">
        <route edges="-550867442#2 -550867442#1 -550867442#0 -229481708#2 -229481708#0 402922224 380438949#0 380438949#1 319447428#1 319447428#2 319447428#3 8148885#0 8148885#1 4559074#0 4559074#1 4559074#2 4559074#3 4559074#4 4559074#5 4559074#6 4559074#7 4559005#0 4559005#1 4559005#2 -550757841 -550741745 -550745968 -550732345 -550873590 -462566123"/>
    </vehicle>
    <vehicle id="pas51" type="passenger" depart="153.00">
        <route edges="161392075#0 161392075#1 161392075#2 245234799#6 161392080 329013842 4559074#0 4559074#1 4559074#2 4559074#3 4559074#4 4559074#5 4559074#6 4559074#7 4559005#0 4559005#1 4559005#2 -550757841 -550741745 -550745968 -550732345 4877453 143331549#0 143331549#1 143331549#2"/>
    </vehicle>
    <vehicle id="pas56" type="passenger" depart="168.00">
        <route edges="549345534 549815935 327956372 327956373#0 327956373#1 4902374#0 4902374#1 4902374#2 4902374#3 -4902433"/>
    </vehicle>
    <vehicle id="pas57" type="passenger" depart="171.00">
        <route edges="473684643 -473684642#0 327754983 247833369#0 247833369#1 319447428#0 319447428#1 319447428#2 319447428#3 401773368 327956372 327956373#0 327956373#1 327956374 27570528#0 -28788365#2 -28788365#1 4902394#1 549928648#1"/>
    </vehicle>
    <vehicle id="pas62" type="passenger" depart="186.00">
        <route edges="-4774365#1 -4774365#0 550873590 550732345 550745968 550741745 550757841 550725735#0 550756710#0 550756710#1 550747490 4902378#0 4902378#1 549917967 319453543#0 319453543#1 319453543#2 161392073#0 161392072 319453543#4 319453543#5 319453543#6 161389765 161392059#0 550860119#2 -550865716 -4734472 221893217#0 -548651990#1 490522132"/>
    </vehicle>
    <vehicle id="pas64" type="passenger" depart="192.00">
        <route edges="550712036#1 4806304#1 4806304#2 327754983 247833369#0 247833369#1 319447428#0 319447428#1 319447428#2 319447428#3 401773368 327956372 327956373#0 327956373#1 327956374 27570528#0 27570528#1 549928648#3 -28885070#1 -28885070#0"/>
    </vehicle>
    <vehicle id="pas65" type="passenger" depart="195.00">
        <route edges="-28788366 -27840840#2 -27840840#1 -27840840#0 28788368#1 -27490680 319453543#1 319453543#2 161392073#0 161392072 319453543#4 319453543#5 319453543#6 161389765 247833371#0 247833371#1-AddedOnRampEdge 247833371#1 161389762-AddedOnRampEdge 161389762 249870999"/>
    </vehicle>
    <vehicle id="pas66" type="passenger" depart="198.00">
        <route edges="-4902394#4 -4902394#3 -4902394#2 -4902394#1 -4902394#0 161392064#0 161392064#1 161392064#3 161392064#4 161392064#5 549345534 549815935 329013842 4559074#0 4559074#1 4559074#2 4559074#3 4559074#4 4559074#5 4559074#6 4559074#7 4559005#0 4559005#1 4559005#2 -550757841 -550741745 -550745968 -550732345 -550873590 4774365#0 4774365#1"/>
    </vehicle>
    <vehicle id="pas68" type="passenger" depart="204.00">
        <route edges="344144147#0 473684641#0 473684641#1 550712035 -550712033 -550867442#1 -550867442#0 -229481708#2 -229481708#0 402922224 380438949#0 380438949#1 319447428#1 319447428#2 319447428#3 8148885#0 8148885#1 4559074#0 4559074#1 4559074#2 4559074#3 4559074#4 4559074#5 4559074#6 4559007 4902378#0 4902378#1 549917967 319453543#0 319453543#1 319453543#2 161392073#0"/>
    </vehicle>
    <vehicle id="pas70" type="passenger" depart="210.00">
        <route edges="-28885040#5 -28885040#4 -28885040#3 27570527#3 27570527#4 -340955662 -27803780#2 -27803780#1 179109642#1 28788370#0 28788371#0 28788368#0 28788368#1 -27490680 319453543#1 319453543#2 161392073#0 161392072 319453543#4 319453543#5 319453543#6 161389765 161392059#0 550860118#0 550860118#1 550860118#2 550860118#3 249697090#0 249697090#1"/>
    </vehicle>
    <vehicle id="pas71" type="passenger" depart="213.00">
        <route edges="549917967 319453543#0 27490680 -28788368#1 -28788368#0 -28788371#0 -28788370#0 -179109642#1 27803780#1 27803780#2 340955662 -27570527#4 -27570527#3 -27570527#2 4902394#3 4902394#4 4902394#5 386278913"/>
    </vehicle>
    <vehicle id="pas76" type="passenger" depart="228.00">
        <route edges="245553663#1 245553663#2 245553663#3 4902433 4902416#0 4902416#2 161392064#3 161392064#4 161392064#5 319453543#0 319453543#1 319453543#2 161392073#0 161392072 319453543#4 319453543#5 319453543#6 161389765 161392059#0 550860119#2 -550865716 -4734472 221893217#0 -548651990#1 -548651990#0"/>
    </vehicle>
    <vehicle id="pas78" type="passenger" depart="234.00">
        <route edges="4734475#0 4734475#1 4734475#2 4734475#3 4734475#4 323823408 249871000 247833367 161392066 319447428#0 319447428#1 319447428#2 319447428#3 401773368 327956372 327956373#0 327956373#1 4902374#0 4902374#1 4902374#2 4902374#3 4902436#0 4902451#1 -4902418#4 -4902418#3 -4902418#2 4902399"/>
    </vehicle>
    <vehicle id="pas79" type="passenger" depart="237.00">
        <route edges="344144147#0 473684641#0 473684641#1 4806304#0 4806304#1 4806304#2 327754983 4734476#0 4734476#1 319453545#0 161389756#0 161389756#1 247833368 247833371#1-AddedOnRampEdge 247833371#1 161389762-AddedOnRampEdge 161389762 86936182"/>
    </vehicle>
    <vehicle id="pas80" type="passenger" depart="240.00">
        <route edges="28885040#4 -327764057#1 -4902394#4 -4902394#3 -4902394#2 -4902394#1 -4902394#0 28788362 549928646#0 161392062 4902374#3 4902436#0 4902436#1 -4902428 8154721#1 8154721#2 8154721#3 4902414#1 4902414#2 4902414#3 161389761#1 161389761#2 550753287#2 550753287#3 550753287#4 550753287#5"/>
    </vehicle>
    <vehicle id="pas81" type="passenger" depart="243.00">
        <route edges="4902418#2 4902418#3 4902418#4 -4902451#1 -4902436#0 4902416#0 4902416#2 161392064#3 161392064#4 161392064#5 319453543#0 319453543#1 319453543#2 161392073#0 161392072 319453543#4 319453543#5 319453543#6 319453544"/>
    </vehicle>
    <vehicle id="pas85" type="passenger" depart="255.00">
        <route edges="-27840840#1 -27840840#0 28788368#1 -27490680 319453543#1 319453543#2 161392073#0 161392072 319453543#4 319453543#5 319453543#6 319453544 161392067 161392069#1 96097794 15968349"/>
    </vehicle>
    <vehicle id="pas86" type="passenger" depart="258.00">
        <route edges="-4902414#3 4902414#3 161389761#1 245553663#8 245553663#9 418990606 4902378#0 4902378#1 549917967 319453543#0 319453543#1 319453543#2 161392073#0 161392072 319453543#4 319453543#5 319453543#6 319453544 161392067 161392068"/>
    </vehicle>
    <vehicle id="pas90" type="passenger" depart="270.00">
        <route edges="-550712033 -550867442#1 -550867442#0 -229481708#2 -229481708#0 402922224 380438949#0 380438949#1 319447428#1 319447428#2 319447428#3 401773368 327956372 327956373#0 327956373#1 4902374#0 4902374#1 4902374#2 4902374#3 4902436#0 4902451#1 -4902418#4 -4902418#3 -4902418#2 -4902418#1 4902392"/>
    </vehicle>
    <vehicle id="pas91" type="passenger" depart="273.00">
        <route edges="4902441 549928642#3 327764059#0 28788365#0 -4902394#0 28788362 549928646#0 161392062 4902374#3 4902436#0 4902436#1 -4902428 8154721#1 8154721#2 8154721#3 4902414#1 4902414#2 4902414#3 161389761#1 161389761#2 550753287#2 550753287#3 550753287#4 550753287#5"/>
    </vehicle>
    <vehicle id="pas92" type="passenger" depart="276.00">
        <route edges="161392070 247833370#0 -473684642#1 -473684642#0 327754983 247833369#0 247833369#1 319447428#0 319447428#1 319447428#2 319447428#3 401773368 327956372 327956373#0 327956373#1 4902374#0 4902374#1 -8154723 4902447 4902377#2"/>
    </vehicle>
    <vehicle id="pas93" type="passenger" depart="279.00">
        <route edges="-4774365#1 -4774365#0 550873590 550732345 550745968 550741745 550757841 550725735#0 550756710#0 550756710#1 550747490 4902378#0 4902474 327956373#1 327956374 549928635 549928642#0 549928642#1 549928642#2 -4902441"/>
    </vehicle>
    <vehicle id="pas94" type="passenger" depart="282.00">
        <route edges="161392062 4902416#2 161392064#3 161392064#4 161392064#5 319453543#0 319453543#1 319453543#2 161392073#0 161392072 319453543#4 319453543#5 319453543#6 161389765 161392059#0 550860119#2 -550865716 -4734472"/>
    </vehicle>
    <vehicle id="pas97" type="passenger" depart="291.00">
        <route edges="4734475#0 4734475#1 4734475#2 4734475#3 4734475#4 323823408 249871000 247833367 161392066 319447428#0 319447428#1 319447428#2 319447428#3 8148885#0 8148885#1 4559074#0 4559074#1 4559074#2 4559074#3 4559074#4 4559074#5 4559074#6 4559074#7 4559005#0 4559005#1 4559005#2 -550757841 -550741745 518473672 518473674"/>
    </vehicle>
    <vehicle id="pas99" type="passenger" depart="297.00">
        <route edges="418990606 4902378#0 4902474 327956373#1 327956374 27570528#0 -28788365#2 -28788365#1 4902394#1 4902394#2 4902394#3 4902394#4 4902394#5 4902394#7"/>
    </vehicle>
    <vehicle id="pas102" type="passenger" depart="306.00">
        <route edges="4902399 -8154721#1 4902428 -4902436#1 -4902436#0 4902416#0 4902416#2 161392064#3 161392064#4 161392064#5 319453543#0 319453543#1 319453543#2 161392073#0 161392072 319453543#4 319453543#5 319453543#6 161389765 161392059#0 550860118#0 550860118#1 550860118#2 161389758 161389756#1 550860119#0"/>
    </vehicle>
    <vehicle id="pas104" type="passenger" depart="312.00">
        <route edges="4902440#3 245553663#9 418990606 4902378#0 4902378#1 549917967 319453543#0 319453543#1 319453543#2 161392073#0 161392072 319453543#4 319453543#5 319453543#6 161389765 161392059#0 550860119#2 -550865716 -4734472 221893217#0 221893217#1 -511815820 511815820"/>
    </vehicle>
    <vehicle id="pas105" type="passenger" depart="315.00">
        <route edges="-28788365#1 -4902394#0 161392064#0 161392064#1 161392064#3 161392064#4 161392064#5 319453543#0 319453543#1 319453543#2 161392073#0 161392072 319453543#4 319453543#5 319453543#6 161389765 161392059#0 550860118#0 550860118#1"/>
    </vehicle>
    <vehicle id="pas106" type="passenger" depart="318.00">
        <route edges="327764058 -4902394#5 -4902394#4 -4902394#3 -4902394#2 -4902394#1 -4902394#0 161392064#0 161392064#1 161392064#3 161392064#4 161392064#5 549345534 549815935 329013842 4559074#0 4559074#1 4559074#2 4559074#3 4559074#4 4559074#5 4559074#6 4559074#7 4559005#0 4559005#1 4559005#2 -550757841 -550741745 518473672 518473674"/>
    </vehicle>
    <vehicle id="pas107" type="passenger" depart="321.00">
        <route edges="-8154721#0 -4902447 4902451#0 -4902436#0 4902416#0 4902416#2 161392064#3 161392064#4 161392064#5 319453543#0 319453543#1 319453543#2 161392073#0 161392072 319453543#4 319453543#5 319453543#6 161389765 161392059#0 550860119#2 -550865716 -4734472 221893217#0 221893217#1 -511815820 -221893257"/>
    </vehicle>
    <vehicle id="pas108" type="passenger" depart="324.00">
        <route edges="-518474788 -162043156 39368522#5 -229481708#0 402922224 380438949#0 380438949#1 319447428#1 319447428#2 319447428#3 401773368 327956372 327956373#0 327956373#1 327956374 549928635 549928646#0"/>
    </vehicle>
    <vehicle id="pas110" type="passenger" depart="330.00">
        <route edges="-162043156 39368522#5 -229481708#0 402922224 380438949#0 380438949#1 319447428#1 319447428#2 319447428#3 8148885#0 8148885#1 4559074#0 4559074#1 4559074#2 4559074#3 4559074#4 4559074#5 4559074#6 4559074#7 4559087 4559118 550753286 550753287#0 550753287#1 550753287#2 550753287#3 550753287#4 550753287#5"/>
    </vehicle>
    <vehicle id="pas112" type="passenger" depart="336.00">
        <route edges="245553663#0 245553663#1 245553663#2 4902426 549928642#2 549928642#3 549928648#0 4902394#2"/>
    </vehicle>
    <vehicle id="pas113" type="passenger" depart="339.00">
        <route edges="245553663#0 245553663#1 245553663#2 245553663#3 4902433 4902436#0 4902436#1"/>
    </vehicle>
    <vehicle id="pas114" type="passenger" depart="342.00">
        <route edges="-27840841#1 -27840841#0 340955662 -27570527#4 -27570527#3 -27570527#2 -4902394#2 -4902394#1 -4902394#0 28788362 549928646#0 161392062 4902374#3 4902436#0 4902436#1 -4902428 8154721#1 8154721#2 8154721#3 4902414#1 -4902444"/>
    </vehicle>
    <vehicle id="pas116" type="passenger" depart="348.00">
        <route edges="-39368522#5 39368522#5 -229481708#0 402922224 380438949#0 380438949#1 319447428#1 319447428#2 319447428#3 401773368 327956372 327956373#0 327956373#1 327956374 27570528#0 -28788365#2 -28788365#1 4902394#1 4902394#2 4902394#3 4902394#4 327764057#1 -327764057#1"/>
    </vehicle>
    <vehicle id="pas117" type="passenger" depart="351.00">
        <route edges="550867442#1 -550867442#1 -550867442#0 -229481708#2 -229481708#0 402922224 380438949#0 380438949#1 319447428#1 319447428#2 319447428#3 401773368 327956372 327956373#0 327956373#1 327956374 27570528#0 -28788365#2 -28788365#1 4902394#1 4902394#2 4902394#3 4902394#4 327764057#1 28885040#5"/>
    </vehicle>
    <vehicle id="pas118" type="passenger" depart="354.00">
        <route edges="-39368523 39368523 -518474575 -473691590#0 39368524#2 380438949#1 319447428#1 319447428#2 319447428#3 401773368 327956372 327956373#0 327956373#1 327956374 549928635 549928642#0 -4902453"/>
    </vehicle>
    <vehicle id="pas121" type="passenger" depart="363.00">
        <route edges="96097829#0 96097829#1 96097829#2 4523238 327754983 247833369#0 247833369#1 319447428#0 319447428#1 319447428#2 319447428#3 401773368 327956372 327956373#0 327956373#1 327956374 27570528#0 -28788365#2 -28788365#1 4902394#1 4902394#2 4902394#3 4902394#4 -327764057#0"/>
    </vehicle>
    <vehicle id="pas122" type="passenger" depart="366.00">
        <route edges="4806304#1 4806304#2 327754983 247833369#0 247833369#1 319447428#0 319447428#1 319447428#2 319447428#3 401773368 327956372 327956373#0 327956373#1 4902374#0 4902374#1 4902374#2 4902374#3 4902436#0 4902451#1 -4902451#1"/>
    </vehicle>
    <vehicle id="pas123" type="passenger" depart="369.00">
        <route edges="249871000 247833367 161392066 319447428#0 319447428#1 319447428#2 319447428#3 401773368 327956372 327956373#0 327956373#1 327956374 27570528#0 27570528#1 27570528#2"/>
    </vehicle>
    <vehicle id="pas124" type="passenger" depart="372.00">
        <route edges="462566123 550873590 550732345 550745968 550741745 550757841 550725735#0 4559084 550753287#0 550753287#1 550753287#2 550753287#3 550753287#4 550753287#5"/>
    </vehicle>
    <vehicle id="pas125" type="passenger" depart="375.00">
        <route edges="-473691589 39368522#2 -518474575 -473691590#0 39368524#2 380438949#1 319447428#1 319447428#2 319447428#3 401773368 327956372 327956373#0 327956373#1 4902374#0 4902374#1 4902374#2 4902374#3 -4902433"/>
    </vehicle>
    <vehicle id="pas127" type="passenger" depart="381.00">
        <route edges="28885040#3 -28885040#3 27570527#3 27570527#4 -340955662 -27803780#2 -27803780#1 179109642#1 28788370#0 28788371#0 28788368#0 28788368#1 -27490680 319453543#1 319453543#2 161392073#0 161392072 319453543#4 319453543#5 319453543#6 319453544 161392067 161392069#1 96097794 15968349"/>
    </vehicle>
    <vehicle id="pas130" type="passenger" depart="390.00">
        <route edges="245553663#1 245553663#2 4902426 549928642#2 549928642#3 549928648#0 4902394#2 4902394#3 -28788361#0"/>
    </vehicle>
    <vehicle id="pas131" type="passenger" depart="393.00">
        <route edges="-221893225 221893285#1 511815820 -221893217#1 -221893217#0 4734472 550865716 161389764 550860118#1 550860118#2 161389758 161389756#1 247833368 247833371#1-AddedOnRampEdge 247833371#1 161389762-AddedOnRampEdge 161389762 249870999"/>
    </vehicle>
    <vehicle id="pas132" type="passenger" depart="396.00">
        <route edges="-27840841#1 -27840841#0 -27803780#2 -27803780#1 179109642#1 28788370#0 28788371#0 28788368#0 28788368#1 -27490680 319453543#1 319453543#2 161392073#0 161392072 319453543#4 319453543#5 319453543#6 161389765 161392059#0 550860118#0 550860118#1 550860118#2"/>
    </vehicle>
    <vehicle id="pas133" type="passenger" depart="399.00">
        <route edges="4902426 549928642#2 549928642#3 327764059#0 327764059#1 161392064#0 161392064#1 161392064#3 161392064#4 161392064#5 549345534 549815935 329013842"/>
    </vehicle>
    <vehicle id="pas136" type="passenger" depart="408.00">
        <route edges="245553663#0 245553663#1 245553663#2 245553663#3 4902433 4902416#0 4902416#2 161392064#3 161392064#4 27840836 -27840840#2 -27840840#1 -27840840#0 -28788368#0"/>
    </vehicle>
    <vehicle id="pas137" type="passenger" depart="411.00">
        <route edges="344144147#0 473684641#0 473684641#1 550712035 -550712033 -550867442#1 -550867442#0 -229481708#2 -229481708#0 402922224 380438949#0 380438949#1 319447428#1 319447428#2 319447428#3 8148885#0 8148885#1 4559074#0 4559074#1 4559074#2 4559074#3 4559074#4 518473679"/>
    </vehicle>
    <vehicle id="pas140" type="passenger" depart="420.00">
        <route edges="4734475#4 323823408 249871000 247833367 161392066 319447428#0 319447428#1 319447428#2 319447428#3 401773368 327956372 327956373#0 327956373#1 4902374#0 4902374#1 4902374#2 4902374#3 4902436#0 4902451#1 -4902418#4 -4902418#3 -4902418#2"/>
    </vehicle>
    <vehicle id="pas143" type="passenger" depart="429.00">
        <route edges="549939609#0 549939609#1 549939609#2 27570526#0 27570527#0 27570527#1 27570527#2 27570527#3 27570527#4 -340955662 -27803780#2 -27803780#1 179109642#1 28788370#0"/>
    </vehicle>
    <vehicle id="pas147" type="passenger" depart="441.00">
        <route edges="511817673 4734475#4 323823408 249871000 247833367 161392066 319447428#0 319447428#1 319447428#2 319447428#3 401773368 327956372 327956373#0 327956373#1 327956374 27570528#0 -28788365#2 -28788365#1 4902394#1 4902394#2 -27570527#1 -27570527#0 27570526#1"/>
    </vehicle>
    <vehicle id="pas152" type="passenger" depart="456.00">
        <route edges="4734472 550865716 161389764 550860118#1 550860118#2 161389758 161389756#1 247833368 247833371#1-AddedOnRampEdge 247833371#1 161389762-AddedOnRampEdge 161389762 249870999"/>
    </vehicle>
    <vehicle id="pas153" type="passenger" depart="459.00">
        <route edges="-4902451#2 -4902451#1 -4902436#0 4902416#0 4902416#2 161392064#3 161392064#4 161392064#5 319453543#0 319453543#1 319453543#2 161392073#0 161392072 319453543#4 319453543#5 319453543#6 161389765 161392059#0 550860119#2 -550865716 -4734472 221893217#0 221893217#1 221893217#2 221893217#3 221893217#4"/>
    </vehicle>
    <vehicle id="pas155" type="passenger" depart="465.00">
        <route edges="327764059#1 161392064#0 161392064#1 161392064#3 161392064#4 161392064#5 319453543#0 319453543#1 319453543#2 161392073#0 161392072 319453543#4 319453543#5 319453543#6 161389765 161392059#0 550860118#0 550860118#1 550860118#2 550860118#3 249697090#0 249697090#1 249697090#2"/>
    </vehicle>
    <vehicle id="pas156" type="passenger" depart="468.00">
        <route edges="39368522#2 -518474575 -473691590#0 39368524#2 380438949#1 319447428#1 319447428#2 319447428#3 401773368 327956372 327956373#0 327956373#1 4902374#0 4902374#1 4902374#2"/>
    </vehicle>
    <vehicle id="pas162" type="passenger" depart="486.00">
        <route edges="4559381 15968284 161392066 319447428#0 319447428#1 319447428#2 319447428#3 401773368 327956372 327956373#0 327956373#1 327956374 161392064#3 161392064#4 27840836 28788366 -28788366"/>
    </vehicle>
    <vehicle id="pas166" type="passenger" depart="498.00">
        <route edges="-518474788 -162043156 39368522#5 -229481708#0 402922224 380438949#0 380438949#1 319447428#1 319447428#2 319447428#3 401773368 327956372 327956373#0 327956373#1 327956374 27570528#0 27570528#1 549928648#3 -28885070#1 -28885070#0"/>
    </vehicle>
    <vehicle id="pas171" type="passenger" depart="513.00">
        <route edges="-4774365#1 -4774365#0 550873590 550732345 550745968 550741745 550757841 550725735#0 550756710#0 550756710#1 550747490 4902378#0 4902378#1 549917967 319453543#0 27490680 -28788368#1 -28788368#0 -28788371#0 -28788370#0 -179109642#1 27803780#1 27803780#2 340955662 -27570527#4 27570528#3 -27570528#3"/>
    </vehicle>
    <vehicle id="pas173" type="passenger" depart="519.00">
        <route edges="-327764057#2 -327764057#1 -4902394#4 -4902394#3 -4902394#2 -4902394#1 -4902394#0 28788362 549928646#0 161392062 4902374#3 4902436#0 4902436#1 -4902428 8154721#1 8154721#2 8154721#3 4902414#1 4902414#2 4902414#3 161389761#1 161389761#2 550753287#2 550753287#3 550753287#4"/>
    </vehicle>
    <vehicle id="pas174" type="passenger" depart="522.00">
        <route edges="344144147#0 473684641#0 473684641#1 550712035 -550712033 -550867442#1 -550867442#0 -229481708#2 -229481708#0 402922224 380438949#0 380438949#1 319447428#1 319447428#2 319447428#3 401773368 327956372 327956373#0 327956373#1 4902374#0 4902374#1"/>
    </vehicle>
    <vehicle id="pas175" type="passenger" depart="525.00">
        <route edges="550741745 550757841 550725735#0 550756710#0 550756710#1 550747490 4902378#0 4902378#1 549917967 319453543#0 319453543#1 319453543#2 161392073#0 161392072 319453543#4 319453543#5 319453543#6 161389765 161392059#0 550860118#0 550860118#1 550860118#2 550860118#3 249697090#0"/>
    </vehicle>
    <vehicle id="pas176" type="passenger" depart="528.00">
        <route edges="245553663#0 245553663#1 245553663#2 245553663#3 4902433 4902416#0 4902416#2 161392064#3 161392064#4 161392064#5 319453543#0 319453543#1 319453543#2 161392073#0 161392072 319453543#4 319453543#5 319453543#6 161389765 161392059#0 550860118#0 550860118#1 550860118#2 161389758 161389756#1 247833368"/>
    </vehicle>
    <vehicle id="pas177" type="passenger" depart="531.00">
        <route edges="-550867442#2 -550867442#1 -550867442#0 -229481708#2 -229481708#0 402922224 380438949#0 380438949#1 319447428#1 319447428#2 319447428#3 401773368 327956372 327956373#0 327956373#1 327956374 27570528#0 -28788365#2 -28788365#1 4902394#1 4902394#2 27570527#2"/>
    </vehicle>
    <vehicle id="pas180" type="passenger" depart="540.00">
        <route edges="-550735550 550735549 -550741745 -550745968 -550732345 -550873590 4774365#0 -4774365#0 550873590 550732345 550745968 550741745 550757841 550725735#0 550756710#0 550756710#1 550747490 4902378#0 4902474 327956373#1 4902374#0 4902374#1 4902374#2 4902374#3 -4902433 245553663#4"/>
    </vehicle>
    <vehicle id="pas182" type="passenger" depart="546.00">
        <route edges="-473691589 39368522#2 -518474575 -473691590#0 39368524#2 380438949#1 319447428#1 319447428#2 319447428#3 401773368 327956372 327956373#0 327956373#1 327956374 549928635 549928642#0 549928642#1 549928642#2 -4902441"/>
    </vehicle>
    <vehicle id="pas190" type="passenger" depart="570.00">