<?xml version="1.0" encoding="UTF-8"?>

<!-- generated on Tue Jan  9 17:34:35 2018 by SUMO polyconvert Version 0.30.0
<?xml version="1.0" encoding="UTF-8"?>

<configuration xmlns:xsi="http://www.w3.org/2001/XMLSchema-instance" xsi:noNamespaceSchemaLocation="http://sumo.dlr.de/xsd/polyconvertConfiguration.xsd">

    <input>
        <net-file value="/media/jefferson/Dados/workspace/gtracker/vanet/sp/sp.net.xml"/>
        <osm-files value="/media/jefferson/Dados/workspace/gtracker/vanet/sp/sp_bbox.osm.xml"/>
        <osm.keep-full-type value="true"/>
        <type-file value="/media/jefferson/Dados/workspace/sumo-0.30.0/data/typemap/osmPolyconvert.typ.xml"/>
    </input>

    <output>
        <output-file value="/media/jefferson/Dados/workspace/gtracker/vanet/sp/sp.poly.xml"/>
    </output>

    <processing>
        <poi-layer-offset value="5"/>
    </processing>

    <report>
        <verbose value="true"/>
    </report>

</configuration>
-->

<additional xmlns:xsi="http://www.w3.org/2001/XMLSchema-instance" xsi:noNamespaceSchemaLocation="http://sumo.dlr.de/xsd/additional_file.xsd">
    <location netOffset="-320521.10,2621997.52" convBoundary="-96.95,-0.00,7678.80,18978.43" origBoundary="-46.759682,-23.699719,-46.685046,-23.527568" projParameter="+proj=utm +zone=23 +ellps=WGS84 +datum=WGS84 +units=m +no_defs"/>

    <poly id="161389759" type="amenity.love_hotel" color="237,199,199" fill="1" layer="-1.00" shape="2919.72,6029.83 2908.56,5995.83 2895.87,5971.54 2884.54,5960.30 2872.10,5950.66 2862.44,5958.11 2869.82,5984.04 2856.57,5989.26 2877.82,6054.98 2919.72,6029.83"/>
    <poly id="161389759#1" type="building.yes" color="255,230,230" fill="1" layer="-1.00" shape="2919.72,6029.83 2908.56,5995.83 2895.87,5971.54 2884.54,5960.30 2872.10,5950.66 2862.44,5958.11 2869.82,5984.04 2856.57,5989.26 2877.82,6054.98 2919.72,6029.83"/>
    <poly id="161389767" type="waterway.stream" color="181,209,209" fill="0" layer="-4.00" shape="733.34,5921.80 760.03,5932.76 787.09,5942.38 814.55,5946.10 855.60,5949.13 887.62,5955.09 917.04,5965.58 946.70,5983.17 999.29,6014.37 1015.61,6027.91 1029.85,6042.95 1049.87,6058.39 1126.57,6103.57 1162.57,6131.19 1197.00,6162.84 1226.00,6192.92 1238.15,6212.83 1246.95,6228.97 1258.50,6256.97 1265.27,6286.09 1284.60,6475.34 1291.90,6503.80 1302.53,6522.83 1316.22,6542.59 1340.72,6566.53 1366.69,6580.69 1393.24,6589.80 1414.43,6592.59 1498.40,6599.53 1529.34,6599.50 1548.87,6610.28 1583.32,6626.06 1724.99,6691.61 1771.27,6711.60 1851.69,6745.33 1919.65,6783.82 1961.20,6802.39 1998.76,6813.15 2032.17,6816.42 2067.88,6812.47 2139.11,6792.06 2160.30,6781.00 2177.11,6767.03 2185.60,6753.45 2194.02,6730.76"/>
    <poly id="161389768" type="leisure.park" color="207,245,201" fill="1" layer="-2.00" shape="1848.04,6706.95 1843.47,6717.75 1765.26,6685.03 1752.80,6679.40 1755.67,6673.70 1763.04,6666.31 1767.95,6657.14 1777.50,6655.63 1780.77,6662.51 1785.51,6667.48 1828.16,6687.04 1836.59,6692.79 1842.90,6699.59 1848.04,6706.95"/>
    <poly id="161699097" type="waterway.river" color="181,209,209" fill="0" layer="-4.00" shape="3391.91,6053.59 3397.82,6097.90 3438.53,6268.51 3496.19,6413.35 3569.51,6539.46 3870.40,6909.34 4645.54,7850.27 4704.74,7921.10 4816.87,8051.23 4902.66,8129.25 5013.59,8213.08 5133.24,8288.45 5263.29,8343.71 5505.72,8435.81 5606.33,8481.47 5684.96,8529.00 5785.42,8606.04 5843.32,8673.67 5894.79,8756.01 5921.35,8817.03"/>
    <poly id="162043148" type="landuse.commercial" color="209,209,204" fill="1" layer="-3.00" shape="2776.75,5517.29 2824.94,5585.26 2868.54,5653.90 2919.26,5728.28 2965.51,5794.10 2985.17,5788.66 3015.24,5788.32 3044.68,5785.12 3079.55,5765.68 3082.76,5764.49 3181.94,5727.91 3221.24,5720.58 3238.20,5722.92 3248.42,5729.16 3250.16,5667.25 3256.29,5625.63 3263.68,5561.50 3264.17,5520.36 3253.29,5454.21 3246.77,5422.58 3232.89,5400.00 3206.23,5376.58 3166.31,5346.10 3141.74,5324.53 3111.59,5278.05 3100.59,5268.47 2980.94,5329.67 2910.36,5384.14 2857.45,5436.69 2814.49,5476.61 2776.75,5517.29"/>
    <poly id="162154118" type="leisure.pitch" color="207,245,201" fill="1" layer="-2.00" shape="3141.85,6882.75 3157.44,6849.90 3140.16,6841.78 3124.57,6874.63 3141.85,6882.75"/>
    <poly id="162154118#1" type="sport.tennis" color="79,230,125" fill="1" layer="-2.00" shape="3141.85,6882.75 3157.44,6849.90 3140.16,6841.78 3124.57,6874.63 3141.85,6882.75"/>
    <poly id="162154119" type="leisure.pitch" color="207,245,201" fill="1" layer="-2.00" shape="3158.09,6853.73 3170.80,6825.36 3188.10,6833.02 3175.38,6861.39 3158.09,6853.73"/>
    <poly id="162154119#1" type="sport.multi" color="79,230,125" fill="1" layer="-2.00" shape="3158.09,6853.73 3170.80,6825.36 3188.10,6833.02 3175.38,6861.39 3158.09,6853.73"/>
    <poly id="162154120" type="leisure.pitch" color="207,245,201" fill="1" layer="-2.00" shape="3139.71,6832.36 3153.50,6799.39 3136.85,6792.51 3123.07,6825.48 3139.71,6832.36"/>
    <poly id="162154120#1" type="sport.tennis" color="79,230,125" fill="1" layer="-2.00" shape="3139.71,6832.36 3153.50,6799.39 3136.85,6792.51 3123.07,6825.48 3139.71,6832.36"/>
    <poly id="162154121" type="leisure.pitch" color="207,245,201" fill="1" layer="-2.00" shape="3123.69,6868.53 3139.45,6836.51 3124.71,6829.33 3108.95,6861.36 3123.69,6868.53"/>
    <poly id="162154121#1" type="sport.tennis" color="79,230,125" fill="1" layer="-2.00" shape="3123.69,6868.53 3139.45,6836.51 3124.71,6829.33 3108.95,6861.36 3123.69,6868.53"/>
    <poly id="162154122" type="leisure.pitch" color="207,245,201" fill="1" layer="-2.00" shape="3143.23,6887.79 3160.14,6895.44 3174.08,6864.94 3157.18,6857.29 3143.23,6887.79"/>
    <poly id="162154122#1" type="sport.multi" color="79,230,125" fill="1" layer="-2.00" shape="3143.23,6887.79 3160.14,6895.44 3174.08,6864.94 3157.18,6857.29 3143.23,6887.79"/>
    <poly id="162154123" type="leisure.pitch" color="207,245,201" fill="1" layer="-2.00" shape="3159.15,6845.10 3173.93,6811.88 3156.45,6804.19 3141.67,6837.41 3159.15,6845.10"/>
    <poly id="162154123#1" type="sport.tennis" color="79,230,125" fill="1" layer="-2.00" shape="3159.15,6845.10 3173.93,6811.88 3156.45,6804.19 3141.67,6837.41 3159.15,6845.10"/>
    <poly id="17552938" type="amenity.bus_station" color="237,199,199" fill="1" layer="-1.00" shape="2700.87,6145.73 2699.21,6136.78 2695.49,6117.82 2695.10,6115.53 2683.24,6117.78 2639.32,6126.09 2639.86,6128.97 2601.97,6135.91 2572.80,6141.19 2564.83,6143.17 2564.24,6140.12 2533.25,6145.99 2533.89,6149.52 2537.73,6168.87 2539.31,6176.95 2610.45,6163.58 2700.87,6145.73"/>
    <poly id="17552938#1" type="building.yes" color="255,230,230" fill="1" layer="-1.00" shape="2700.87,6145.73 2699.21,6136.78 2695.49,6117.82 2695.10,6115.53 2683.24,6117.78 2639.32,6126.09 2639.86,6128.97 2601.97,6135.91 2572.80,6141.19 2564.83,6143.17 2564.24,6140.12 2533.25,6145.99 2533.89,6149.52 2537.73,6168.87 2539.31,6176.95 2610.45,6163.58 2700.87,6145.73"/>
    <poly id="181732242" type="building.yes" color="255,230,230" fill="1" layer="-1.00" shape="2797.58,6796.10 2815.29,6769.31 2840.58,6785.83 2822.87,6812.63 2797.58,6796.10"/>
    <poly id="181733891" type="building.yes" color="255,230,230" fill="1" layer="-1.00" shape="3068.19,6717.97 3099.27,6712.84 3104.91,6746.63 3073.83,6751.76 3068.19,6717.97"/>
    <poly id="181733894" type="building.yes" color="255,230,230" fill="1" layer="-1.00" shape="2908.88,6713.60 2939.97,6708.47 2945.61,6742.26 2914.52,6747.38 2908.88,6713.60"/>
    <poly id="181733895" type="building.yes" color="255,230,230" fill="1" layer="-1.00" shape="2997.92,6694.08 3029.01,6688.96 3034.65,6722.74 3003.56,6727.87 2997.92,6694.08"/>
    <poly id="181733896" type="building.yes" color="255,230,230" fill="1" layer="-1.00" shape="2860.11,6732.61 2889.82,6723.83 2899.54,6756.30 2869.83,6765.09 2860.11,6732.61"/>
    <poly id="181733899" type="building.yes" color="255,230,230" fill="1" layer="-1.00" shape="2951.52,6699.11 2982.61,6693.98 2988.25,6727.77 2957.16,6732.89 2951.52,6699.11"/>
    <poly id="181733900" type="building.yes" color="255,230,230" fill="1" layer="-1.00" shape="3062.08,6787.71 3093.16,6782.58 3098.80,6816.37 3067.72,6821.50 3062.08,6787.71"/>
    <poly id="181733901" type="building.yes" color="255,230,230" fill="1" layer="-1.00" shape="2775.06,6876.25 2777.20,6833.42 2808.50,6834.97 2806.35,6877.80 2775.06,6876.25"/>
    <poly id="227805643" type="waterway.river" color="181,209,209" fill="0" layer="-4.00" shape="4086.45,4734.79 3977.93,4871.95 3622.45,5303.05 3483.24,5499.48 3411.23,5687.62 3388.01,5828.43 3385.28,5955.98 3386.93,6016.25 3391.91,6053.59"/>
    <poly id="249697092" type="leisure.park" color="207,245,201" fill="1" layer="-2.00" shape="3077.88,6094.21 3124.76,6095.28 3139.05,6097.31 3149.57,6102.85 3155.07,6110.97 3156.19,6121.66 3151.89,6129.62 3145.12,6134.44 3141.96,6136.13 3130.54,6138.63 3123.34,6134.98 3106.42,6122.39 3090.23,6106.84 3077.88,6094.21"/>
    <poly id="249697093" type="leisure.park" color="207,245,201" fill="1" layer="-2.00" shape="3215.40,6043.67 3268.28,6038.75 3266.20,5996.51 3261.83,5980.26 3254.66,5967.22 3251.12,5963.28 3239.67,5954.40 3228.97,5949.89 3213.51,5948.25 3199.81,5949.86 3187.02,5956.84 3174.35,5967.37 3166.69,5981.54 3163.59,5995.43 3165.63,6002.93 3173.15,6020.05 3177.93,6027.74 3189.48,6034.69 3202.82,6039.15 3215.40,6043.67"/>
    <poly id="249697094" type="leisure.park" color="207,245,201" fill="1" layer="-2.00" shape="3099.49,6046.71 3092.53,6048.88 3088.14,6042.16 3087.43,6036.38 3091.61,6032.21 3116.04,6025.95 3125.73,6020.28 3134.46,6010.50 3141.91,5993.58 3153.48,5970.39 3165.19,5953.54 3181.03,5938.72 3204.60,5920.90 3238.39,5895.20 3252.23,5884.99 3257.67,5876.82 3265.78,5928.36 3267.71,5955.91 3263.93,5958.57 3260.20,5957.96 3250.55,5948.70 3237.13,5942.34 3222.88,5938.90 3211.42,5938.76 3195.06,5940.81 3182.29,5946.41 3172.20,5954.75 3162.30,5966.36 3157.75,5976.69 3154.21,5988.83 3154.15,6002.70 3156.84,6015.03 3164.82,6029.79 3176.15,6040.87 3182.12,6044.78 3173.83,6043.95 3107.35,6044.79 3099.49,6046.71"/>
    <poly id="249697146" type="natural.scrub" color="140,196,107" fill="1" layer="-4.00" shape="3129.22,6159.33 3135.96,6161.99 3146.55,6161.30 3155.53,6156.47 3161.40,6150.96 3163.85,6153.28 3164.98,6168.75 3168.17,6179.16 3168.08,6186.22 3163.39,6192.39 3129.22,6159.33"/>
    <poly id="249697147" type="natural.scrub" color="140,196,107" fill="1" layer="-4.00" shape="3008.56,6041.13 2987.11,6046.19 2976.67,6043.12 2969.42,6036.97 2966.01,6031.94 2965.77,6022.08 2968.05,6011.81 2973.91,6005.59 2981.43,6002.13 2990.06,6000.89 3001.86,6003.49 3012.76,6008.28 3019.91,6018.37 3025.16,6036.55 3008.56,6041.13"/>
    <poly id="249697148" type="landuse.grass" color="194,194,130" fill="1" layer="-3.00" shape="3162.83,6112.93 3166.63,6108.01 3170.99,6107.91 3175.61,6111.53 3176.47,6117.58 3152.93,6146.70 3144.16,6151.39 3135.74,6152.22 3127.96,6151.66 3128.46,6148.88 3137.03,6148.52 3144.99,6146.76 3152.52,6141.28 3159.46,6133.62 3162.69,6124.22 3163.54,6118.51 3162.83,6112.93"/>
    <poly id="249697149" type="natural.scrub" color="140,196,107" fill="1" layer="-4.00" shape="3147.99,6092.00 3194.85,6091.48 3195.10,6096.44 3181.87,6109.59 3179.44,6104.61 3174.49,6101.15 3165.47,6100.73 3159.68,6103.29 3154.62,6097.03 3147.99,6092.00"/>
    <poly id="249697150" type="landuse.grass" color="194,194,130" fill="1" layer="-3.00" shape="2972.79,5997.45 2994.80,5978.60 2999.96,5976.67 3004.87,5977.39 3009.29,5981.67 3008.55,5987.11 3006.28,5990.29 3002.46,5992.58 2982.20,5994.90 2972.79,5997.45"/>
    <poly id="249697151" type="landuse.grass" color="194,194,130" fill="1" layer="-3.00" shape="3018.85,6096.84 3031.55,6095.84 3052.45,6094.57 3069.93,6112.26 3077.95,6122.04 3066.07,6116.20 3051.61,6108.83 3037.43,6101.92 3028.15,6099.59 3018.85,6096.84"/>
    <poly id="250338833" type="building.yes" color="255,230,230" fill="1" layer="-1.00" shape="2544.64,6213.67 2598.75,6230.95 2603.14,6232.35 2618.75,6237.34 2621.22,6229.70 2628.22,6231.94 2620.92,6254.53 2631.33,6257.86 2619.59,6294.18 2626.45,6296.37 2604.91,6363.06 2609.90,6364.66 2603.12,6385.63 2607.95,6387.18 2605.39,6395.11 2593.55,6391.32 2588.07,6408.27 2583.28,6406.74 2576.56,6427.53 2567.67,6424.70 2560.25,6447.66 2553.54,6445.52 2556.58,6436.11 2480.64,6411.85 2482.36,6406.48 2543.35,6217.67 2544.64,6213.67"/>
    <poly id="250338833#1" type="shop.supermarket" color="237,199,255" fill="1" layer="-1.00" shape="2544.64,6213.67 2598.75,6230.95 2603.14,6232.35 2618.75,6237.34 2621.22,6229.70 2628.22,6231.94 2620.92,6254.53 2631.33,6257.86 2619.59,6294.18 2626.45,6296.37 2604.91,6363.06 2609.90,6364.66 2603.12,6385.63 2607.95,6387.18 2605.39,6395.11 2593.55,6391.32 2588.07,6408.27 2583.28,6406.74 2576.56,6427.53 2567.67,6424.70 2560.25,6447.66 2553.54,6445.52 2556.58,6436.11 2480.64,6411.85 2482.36,6406.48 2543.35,6217.67 2544.64,6213.67"/>
    <poly id="253718237" type="landuse.residential" color="235,235,227" fill="1" layer="-3.00" shape="3019.79,6223.58 3039.53,6194.69 3049.50,6137.77 3081.27,6152.00 3102.79,6169.54 3208.01,6293.87 3175.34,6312.63 2951.82,6336.77 2924.74,6379.38 2848.40,6313.33 2882.67,6255.70 2912.62,6268.25 2942.99,6229.19 2962.21,6218.01 2999.37,6216.14 3019.79,6223.58"/>
    <poly id="253718974" type="landuse.residential" color="235,235,227" fill="1" layer="-3.00" shape="1908.96,7103.64 1903.20,7110.83 1897.52,7124.71 1902.79,7144.82 1922.32,7170.55 1936.05,7180.10 1952.37,7181.55 1976.32,7198.89 2047.04,7195.05 2029.63,7229.48 2006.64,7272.62 1977.15,7294.07 1974.44,7292.61 1910.88,7242.68 1848.79,7188.14 1827.00,7234.72 1811.86,7237.42 1790.92,7214.02 1785.99,7191.80 1748.38,7129.65 1829.47,7099.18 1860.46,7092.81 1860.47,6949.81 1846.28,6858.38 1819.19,6845.53 1777.96,6837.83 1761.53,6829.87 1744.03,6799.87 1716.62,6771.95 1758.81,6717.42 1982.46,6811.85 2006.98,6818.13 2086.58,6825.19 2072.23,6897.90 2051.87,6901.86 2035.93,6921.05 1954.03,7084.75 1943.10,7098.91 1927.98,7103.43 1908.96,7103.64"/>
    <poly id="273034577" type="landuse.residential" color="235,235,227" fill="1" layer="-3.00" shape="2332.76,6543.12 2481.53,6551.67 2491.02,6444.25 2733.40,6573.49 2731.85,6625.31 2375.12,6616.02 2342.71,6630.02 2343.09,6610.28 2340.88,6578.96 2332.76,6543.12"/>
    <poly id="280241649" type="landuse.residential" color="235,235,227" fill="1" layer="-3.00" shape="2774.23,6628.27 2720.22,6766.47 2611.44,6754.13 2516.47,6882.19 2450.56,6831.94 2447.04,6808.14 2417.24,6783.01 2330.23,6735.02 2338.09,6671.66 2342.71,6630.02 2375.12,6616.02 2731.85,6625.31 2774.23,6628.27"/>
    <poly id="318368708" type="amenity.parking" color="184,184,179" fill="1" layer="-1.00" shape="2544.64,6213.67 2547.73,6207.31 2599.79,6197.28 2607.62,6200.22 2613.40,6198.66 2621.96,6196.36 2618.73,6206.75 2607.63,6218.69 2598.75,6230.95 2544.64,6213.67"/>
    <poly id="318368710" type="building.supermarket" color="255,230,230" fill="1" layer="-1.00" shape="3074.30,5784.35 3061.07,5789.55 3070.79,5809.89 3048.41,5821.21 3050.63,5826.34 3045.08,5829.34 3073.07,5896.37 3079.76,5892.33 3089.39,5918.84 3239.10,5853.83 3205.19,5776.29 3221.83,5768.02 3229.97,5765.13 3232.48,5756.18 3223.44,5750.38 3202.65,5758.17 3201.14,5754.75 3166.83,5769.26 3156.43,5748.10 3074.30,5784.35"/>
    <poly id="318368710#1" type="shop.supermarket" color="237,199,255" fill="1" layer="-1.00" shape="3074.30,5784.35 3061.07,5789.55 3070.79,5809.89 3048.41,5821.21 3050.63,5826.34 3045.08,5829.34 3073.07,5896.37 3079.76,5892.33 3089.39,5918.84 3239.10,5853.83 3205.19,5776.29 3221.83,5768.02 3229.97,5765.13 3232.48,5756.18 3223.44,5750.38 3202.65,5758.17 3201.14,5754.75 3166.83,5769.26 3156.43,5748.10 3074.30,5784.35"/>
    <poly id="318368711" type="amenity.parking" color="184,184,179" fill="1" layer="-1.00" shape="3045.08,5829.34 3006.26,5846.47 3065.15,5980.98 3104.31,5995.93 3127.98,5986.75 3140.27,5955.18 3136.58,5944.71 3173.01,5926.67 3196.99,5908.07 3210.83,5895.17 3224.93,5883.10 3242.67,5863.71 3246.08,5853.96 3245.33,5825.65 3240.96,5801.92 3237.68,5801.61 3221.83,5768.02 3205.19,5776.29 3239.10,5853.83 3089.39,5918.84 3079.76,5892.33 3073.07,5896.37 3045.08,5829.34"/>
    <poly id="327764346" type="building.transportation" color="255,230,230" fill="1" layer="-1.00" shape="2535.79,6142.04 2532.20,6127.30 2562.49,6118.61 2560.70,6110.77 2591.92,6102.70 2593.08,6110.22 2605.70,6106.94 2604.52,6099.73 2636.34,6094.49 2637.20,6101.69 2668.67,6098.95 2671.00,6114.30 2639.84,6117.04 2640.08,6123.92 2611.09,6128.57 2609.93,6120.74 2596.37,6124.01 2597.23,6131.21 2568.54,6138.06 2566.72,6132.41 2535.79,6142.04"/>
    <poly id="380438948" type="amenity.fuel" color="237,199,199" fill="1" layer="-1.00" shape="2679.27,6193.37 2705.82,6189.12 2703.24,6166.66 2675.03,6171.43 2679.27,6193.37"/>
    <poly id="380438948#1" type="building.roof" color="255,230,230" fill="1" layer="-1.00" shape="2679.27,6193.37 2705.82,6189.12 2703.24,6166.66 2675.03,6171.43 2679.27,6193.37"/>
    <poly id="380438950" type="amenity.fuel" color="237,199,199" fill="1" layer="-1.00" shape="2293.09,6720.57 2311.82,6723.36 2314.03,6708.62 2295.31,6705.83 2293.09,6720.57"/>
    <poly id="380438950#1" type="building.roof" color="255,230,230" fill="1" layer="-1.00" shape="2293.09,6720.57 2311.82,6723.36 2314.03,6708.62 2295.31,6705.83 2293.09,6720.57"/>
    <poly id="398406519" type="amenity.fuel" color="237,199,199" fill="1" layer="-1.00" shape="2383.41,6177.59 2381.68,6171.26 2392.40,6166.27 2395.13,6172.09 2404.51,6167.73 2408.99,6177.24 2369.73,6195.49 2363.42,6187.02 2383.41,6177.59"/>
    <poly id="398406519#1" type="building.roof" color="255,230,230" fill="1" layer="-1.00" shape="2383.41,6177.59 2381.68,6171.26 2392.40,6166.27 2395.13,6172.09 2404.51,6167.73 2408.99,6177.24 2369.73,6195.49 2363.42,6187.02 2383.41,6177.59"/>
    <poly id="398406520" type="amenity.fuel" color="237,199,199" fill="1" layer="-1.00" shape="2187.16,6238.42 2204.10,6234.83 2199.64,6218.39 2182.70,6221.98 2187.16,6238.42"/>
    <poly id="398406520#1" type="building.roof" color="255,230,230" fill="1" layer="-1.00" shape="2187.16,6238.42 2204.10,6234.83 2199.64,6218.39 2182.70,6221.98 2187.16,6238.42"/>
    <poly id="4735146" type="waterway.riverbank" color="181,209,209" fill="1" layer="-4.00" shape="6645.81,11534.81 6609.06,11404.68 6511.35,11073.37 6451.45,10879.27 6336.57,10519.88 6300.26,10406.20 6243.87,10212.15 6187.65,9930.13 6125.10,9600.37 6111.11,9514.60 6053.69,9187.28 6042.77,9147.96 6015.55,9079.69 6001.35,9022.04 5990.41,8984.45 5981.70,8906.83 5971.00,8848.34 5935.33,8754.73 5892.46,8676.70 5834.19,8609.22 5740.74,8520.21 5607.49,8434.93 5325.02,8327.13 5209.78,8285.46 5086.61,8221.20 4957.30,8125.91 4866.08,8036.09 4773.24,7928.73 4757.40,7914.86 4726.95,7868.28 4715.17,7857.05 4705.14,7840.66 4697.52,7831.02 4615.41,7737.94 4353.30,7423.55 4241.56,7292.20 4129.35,7160.31 4079.37,7100.92 3990.71,6993.59 3953.96,6950.53 3901.06,6887.32 3602.31,6523.86 3539.26,6409.14 3474.95,6258.87 3417.54,6097.64 3405.04,6013.58 3409.61,5956.61 3422.98,5834.04 3448.76,5694.44 3501.25,5552.83 3532.62,5493.13 3601.20,5398.16 3747.97,5208.05 3778.22,5170.40 3895.55,5026.40 4070.64,4812.55 4004.64,4766.48 3885.53,4913.07 3708.58,5135.60 3594.87,5270.08 3472.03,5434.05 3431.73,5508.45 3413.95,5548.86 3402.61,5598.66 3380.66,5675.90 3356.05,5828.00 3355.01,5957.74 3367.27,6006.88 3372.98,6098.99 3402.45,6279.32 3446.65,6427.20 3482.86,6492.89 3509.71,6546.27 3516.73,6561.51 3530.29,6580.02 3547.94,6602.51 3570.55,6626.05 3604.27,6659.01 3616.67,6672.58 3625.46,6685.66 3633.27,6696.52 3651.68,6720.04 3672.12,6744.82 3690.57,6765.33 3700.30,6778.94 3712.33,6796.67 3735.74,6826.71 3783.39,6877.81 3834.31,6941.00 4052.87,7196.62 4084.18,7238.53 4116.05,7274.51 4152.85,7314.33 4186.63,7356.28 4206.68,7383.49 4224.34,7402.57 4267.98,7451.64 4317.48,7508.88 4372.80,7579.67 4413.47,7627.63 4781.20,8068.77 4852.99,8144.42 4933.66,8219.31 5003.07,8269.00 5096.16,8326.97 5222.39,8383.57 5404.54,8441.05 5592.44,8513.52 5629.59,8532.42 5679.94,8575.21 5721.37,8617.51 5791.97,8692.27 5858.09,8767.74 5902.55,8858.86 5940.27,8983.65 5952.64,9039.43 5955.08,9127.97 5961.44,9179.48 5976.82,9288.93 6011.43,9462.57 6042.16,9631.70 6110.00,10008.61 6122.41,10071.90 6148.00,10197.83 6170.54,10279.24 6214.09,10414.76 6239.27,10506.38 6288.68,10665.22 6301.77,10712.51 6364.09,10928.25 6391.07,10998.86 6437.23,11157.86 6464.13,11217.32 6483.26,11258.59 6510.34,11373.37 6531.96,11433.40 6545.15,11482.55 6563.83,11559.78 6645.81,11534.81"/>
    <poly id="473684658" type="leisure.park" color="207,245,201" fill="1" layer="-2.00" shape="3039.32,6021.92 3035.20,5978.33 3054.05,6004.13 3067.60,6014.91 3080.96,6018.61 3039.32,6021.92"/>
    <poly id="487834305" type="leisure.park" color="207,245,201" fill="1" layer="-2.00" shape="2356.91,5897.28 2372.53,5918.28 2376.11,5927.04 2370.30,5933.09 2335.96,5932.27 2328.65,5925.24 2339.79,5909.18 2347.03,5900.15 2356.91,5897.28"/>
    <poly id="488490616" type="amenity.school" color="237,199,199" fill="1" layer="-1.00" shape="1932.51,6123.45 2015.25,6112.22 2008.26,6065.35 1929.59,6078.66 1932.51,6123.45"/>
    <poly id="488922692" type="building.yes" color="255,230,230" fill="1" layer="-1.00" shape="2229.77,5931.64 2233.17,5935.10 2309.03,5932.61 2308.36,5927.92 2302.84,5922.47 2273.05,5892.13 2227.72,5893.37 2229.77,5931.64"/>
    <poly id="488922692#1" type="leisure.sports_centre" color="207,245,201" fill="1" layer="-2.00" shape="2229.77,5931.64 2233.17,5935.10 2309.03,5932.61 2308.36,5927.92 2302.84,5922.47 2273.05,5892.13 2227.72,5893.37 2229.77,5931.64"/>
    <poly id="488922692#2" type="sport.soccer,_volley,_basketball" color="79,230,125" fill="1" layer="-2.00" shape="2229.77,5931.64 2233.17,5935.10 2309.03,5932.61 2308.36,5927.92 2302.84,5922.47 2273.05,5892.13 2227.72,5893.37 2229.77,5931.64"/>
    <poly id="511815821" type="amenity.place_of_worship" color="237,199,199" fill="1" layer="-1.00" shape="2304.91,5828.34 2329.31,5824.56 2331.18,5828.40 2331.96,5832.48 2307.54,5836.81 2307.33,5832.18 2304.91,5828.34"/>
    <poly id="511815821#1" type="building.church" color="255,230,230" fill="1" layer="-1.00" shape="2304.91,5828.34 2329.31,5824.56 2331.18,5828.40 2331.96,5832.48 2307.54,5836.81 2307.33,5832.18 2304.91,5828.34"/>
    <poly id="548651991" type="leisure.garden" color="207,245,201" fill="1" layer="-2.00" shape="2579.19,5939.46 2572.71,5932.23 2576.66,5928.60 2583.55,5935.97 2582.30,5936.98 2580.78,5938.25 2579.19,5939.46"/>
    <poly id="550725008" type="landuse.grass" color="194,194,130" fill="1" layer="-3.00" shape="2315.18,6244.03 2324.19,6248.01 2332.41,6255.88 2336.84,6264.32 2340.50,6274.26 2342.32,6279.29 2342.09,6267.14 2342.23,6255.74 2343.11,6245.24 2343.70,6239.37 2315.18,6244.03"/>
    <poly id="550743608" type="landuse.grass" color="194,194,130" fill="1" layer="-3.00" shape="2337.40,6669.08 2339.03,6652.58 2344.81,6656.53 2349.10,6657.80 2355.67,6657.88 2359.37,6657.51 2337.40,6669.08"/>
    <poly id="550860120" type="landuse.grass" color="194,194,130" fill="1" layer="-3.00" shape="2939.28,6059.25 2940.10,6052.51 2943.98,6042.97 2946.24,6038.62 2953.24,6035.69 2960.26,6032.12 2962.75,6039.27 2965.44,6044.88 2969.71,6048.21 2975.85,6049.74 2939.28,6059.25"/>
    <poly id="550912310" type="landuse.grass" color="194,194,130" fill="1" layer="-3.00" shape="2284.32,6539.72 2290.23,6538.30 2295.70,6538.23 2300.06,6539.10 2304.71,6539.43 2300.74,6516.79 2293.08,6516.56 2284.32,6539.72"/>
    <poly id="80671636" type="leisure.nature_reserve" color="207,245,201" fill="1" layer="-2.00" shape="3782.56,7063.62 3806.40,7084.59 3820.40,7103.26 3820.23,7117.41 3782.77,7137.65 3756.34,7150.39 3744.27,7152.43 3725.68,7151.11 3709.32,7145.47 3695.14,7140.95 3536.48,7134.68 3519.99,7139.92 3498.31,7122.23 3469.04,7097.93 3448.56,7071.56 3426.91,7051.70 3399.84,7026.33 3368.17,7019.43 3330.89,7024.42 3329.38,6968.87 3337.50,6930.87 3351.21,6883.14 3352.80,6841.79 3343.46,6800.31 3318.67,6767.35 3310.29,6736.77 3292.32,6683.21 3283.98,6649.36 3285.36,6625.43 3297.96,6578.78 3300.15,6537.43 3305.13,6484.40 3307.54,6477.35 3313.58,6469.60 3323.16,6464.43 3335.29,6466.61 3345.76,6472.37 3360.37,6498.21 3390.73,6548.56 3431.86,6607.29 3492.35,6690.37 3538.30,6746.56 3575.74,6787.78 3597.65,6811.07 3611.78,6835.03 3633.61,6866.47 3664.68,6914.45 3707.52,6973.05 3782.56,7063.62"/>
    <poi id="1042136488" type="aeroway.helipad" color="grey" layer="3.00" x="2421.08" y="6260.08"/>
    <poi id="3247697993" type="shop.supermarket" color="237,199,255" layer="4.00" x="3074.57" y="5848.55"/>
    <poi id="3606550108" type="amenity.doctors" color="237,199,199" layer="4.00" x="2450.13" y="5862.99"/>
    <poi id="3837736909" type="shop.convenience" color="237,199,255" layer="4.00" x="2686.01" y="6185.51"/>
    <poi id="4230613715" type="shop.supermarket" color="237,199,255" layer="4.00" x="2143.55" y="6356.86"/>
    <poi id="4796903721" type="leisure.pitch" color="207,245,201" layer="3.00" x="2256.00" y="5914.90"/>
    <poi id="4796903721#1" type="sport.soccer,_volleyball,_basketball" color="79,230,125" layer="3.00" x="2256.00" y="5914.90"/>
    <poi id="4796903723" type="amenity.school" color="237,199,199" layer="4.00" x="2329.75" y="5900.45"/>
    <poi id="4807792266" type="amenity.clinic" color="237,199,199" layer="4.00" x="1860.67" y="6184.80"/>
</additional>
