<?xml version="1.0" encoding="UTF-8"?>

<!-- generated on Mon Jan 15 22:06:29 2018 by SUMO duarouter Version 0.30.0
<?xml version="1.0" encoding="UTF-8"?>

<configuration xmlns:xsi="http://www.w3.org/2001/XMLSchema-instance" xsi:noNamespaceSchemaLocation="http://sumo.dlr.de/xsd/duarouterConfiguration.xsd">

    <input>
        <net-file value="/media/jefferson/Dados/workspace/gtracker/vanet/sp/sp.net.xml"/>
        <trip-files value="/media/jefferson/Dados/workspace/gtracker/vanet/sp/sp.pedestrian.trips.xml"/>
    </input>

    <output>
        <output-file value="/media/jefferson/Dados/workspace/gtracker/vanet/sp/sp.pedestrian.rou.xml"/>
    </output>

    <processing>
        <ignore-errors value="true"/>
    </processing>

    <time>
        <begin value="0"/>
        <end value="3600.0"/>
    </time>

    <report>
        <no-warnings value="true"/>
        <no-step-log value="true"/>
    </report>

</configuration>
-->

<routes xmlns:xsi="http://www.w3.org/2001/XMLSchema-instance" xsi:noNamespaceSchemaLocation="http://sumo.dlr.de/xsd/routes_file.xsd">
    <person id="ped1" depart="1.00">
        <walk edges="-466974173#1 -27218103#3 -27218103#4 -168645107#3 -168645107#4 -27218104#0 -27218104#1 -27218104#2 27218104#3 27218104#4 466991750#0 466991750#1 27218105 -409594648 -386114159#0"/>
    </person>
    <person id="ped2" depart="2.00">
        <walk edges="386113077#1 -386113076#0 -4727809#12 4727810 4727807#4 4727807#3 550753287#6 550753287#5 245553663#6 4770307#1 4770307#2 4770307#3 4902415#1 4902369#0 4902441#0 4902441#1 549928642#3 327764059#0 28788365#0"/>
    </person>
    <person id="ped3" depart="3.00">
        <walk edges="157642252 -157642252 157642287#2 157642287#1 157642287#0 -473679814#2 -473679814#3 -473679814#4 -473679814#5 473679810#0 -157483941#0 -351479493#0 -351479493#1 -466974166#0 -386114778#1 157483940#4 157483940#5 -157483940#5"/>
    </person>
    <person id="ped5" depart="5.00">
        <walk edges="27951306#1 345049503 250299199 245234779 245234780 27952553 245546853#0 245546853#1 332399555 201637618#1 250299207 252482711#1"/>
    </person>
    <person id="ped6" depart="6.00">
        <walk edges="-386113076#2 -386113076#1 -386113076#0 -4727809#12 4727810 4727807#4 4727807#3 550753287#6 550753287#5 245553663#6 4770307#1 4770307#2 4902389#1 -4902450#2 -4902450#3 4902423 4523223#3 4523223#2 252482722 549939609#6 549939609#7 -28788387#1 -27570527#1 27570527#2 27570527#3 27570527#4 27570527#5"/>
    </person>
    <person id="ped10" depart="10.00">
        <walk edges="462566123 4877452 -4877450 143331549#0 -143331549#1 -143331549#2 -143331549#3 -506329457#0 157643730#1 157643735#1 157642260#0 -473679810#1 -473679810#0 -157483950#6 -157483950#5 -157483950#4 -157483950#3 157483950#2 157483950#1 -143331551#0 -157483952#0 -157483952#1 -157483952#2 345332043#1"/>
    </person>
    <person id="ped11" depart="11.00">
        <walk edges="249697090#4 249697090#3 249697090#2 249697090#1 249697090#0 550860118#3 550860118#2 550860118#1 161389764 -550865716 -4734472 341224412 490522365#1 319453543#5 319453543#4 161392072 161392073#0 319453543#2 319453543#1 319453543#0 161392064#5 161392064#4 161392064#3 161392064#1 161392064#0 327764059#1 327764059#0 549939609#8 549939609#7 549939609#6 549939609#5"/>
    </person>
    <person id="ped12" depart="12.00">
        <walk edges="47223644 47223646#4 47223646#5 47223646#6 47223646#7 47223646#8 47223657 -312299088#2 -47221485#0 -27572162#0 -27572162#1 -27572162#2 -27572162#3 53172877#0 27572159 245234795#2 245234795#0 27571494#0 27571848#5"/>
    </person>
    <person id="ped13" depart="13.00">
        <walk edges="327764054#1 327764054#0 473691607 -473691609 327764055 327764057#2 327764057#1 327764057#0 27570526#3 27570526#1 27570526#0 549939609#6 252482722 4523223#2 -4902415#3 -4902415#2 -4902369#0 -4902369#1 4902426#3 -4902371#0 -4902371#1 -4902371#2 -4902419#0 -4902419#1 157643736#5 157643736#4 343764294 157643733#2 157643733#1 -157643725#0"/>
    </person>
    <person id="ped14" depart="14.00">
        <walk edges="-386114165 386114160#2 -386114160#1 -386114160#0 -4727809#10 -4727809#9 27218101 466974177#0 466974177#1 27218103#2 -27218103#3 -27218103#4 -168645107#3 -168645107#4 -27218104#0 -27218104#1 -27218104#2 27218104#3 27218104#4 466991750#0 466991750#1 27218105 473679813 -473679813 -351479491 -473679810#3 -473679810#2 -473679810#1 -473679810#0"/>
    </person>
    <person id="ped15" depart="15.00">
        <walk edges="-255915651 255915651 255915638#0 550753287#7 -4727807#3 -4727807#4 4727810 -4727809#12 -4727809#11 -4727809#10 -4727809#9 27218101 466974177#0 466974177#1 27218103#2 -27218103#3 -27218103#4 -168645107#3 -168645107#4 -27218104#0 -27218104#1 -27218104#2 -27218104#3 -27218104#4 -466991750#0"/>
    </person>
    <person id="ped16" depart="16.00">
        <walk edges="276610800 27490670#0 27490670#1 27490670#2 27490671 549941138#0 27490672#0 27490672#1 27490672#2 549939609#1 549939609#2 549939609#3 549939609#5 252482722 4523223#1 4523223#0 549928651 549928642#3 549928642#2 549928642#1 549928642#0 -549928646#0"/>
    </person>
    <person id="ped17" depart="17.00">
        <walk edges="-550873590 4877453 -143331549#0 -143331549#1 -143331549#2 -143331549#3 506329457#0 -157643730#1 -157643735#1 -157643735#0 -157643728 -506271618#3 -473679816#2 -473679816#1 -473679816#0 -345328742#1"/>
    </person>
    <person id="ped18" depart="18.00">
        <walk edges="-425383186 -462566121 -462566123 -550873590 -550732345 550745968 550741745 550757841 550725735#0 550749977 418990606 4902378#0 4902474 327956373#1 4902374#0 4902374#1 4902374#2 4902374#3 -4902436#0 4902451#1"/>
    </person>
    <person id="ped19" depart="19.00">
        <walk edges="27951305#0 250338817#7 250299211 252482711#3 252482711#4 252482711#5 245546840 245546843#0 245546843#1 245546843#2 252482724 250338821#0 522947092 248521868#3 248521868#2 27571483#3 27571483#2 27571488#3"/>
    </person>
    <person id="ped20" depart="20.00">
        <walk edges="550865724 161392079#4 161392079#3 161392079#2 161392079#1 161392079#0 550865728 161392073#0 319453543#2 319453543#1 27490680 -28788368#1 27840840#0 27840840#1 27840840#2 27840840#3"/>
    </person>
    <person id="ped21" depart="21.00">
        <walk edges="27016584 27016573#2 -27016563#1 -4770191#7 -4770191#8 -4770191#9 -4770191#10 549939606#5 549939606#4 549939606#3 549939606#2 549939609#0 549939609#1 549939609#2 549939609#3 28885078 4902394#7 386278913#0 28788382#0 28788382#1 28788382#2 28788382#3 28788382#4 28788382#5"/>
    </person>
    <person id="ped22" depart="22.00">
        <walk edges="-386114176#0 -4727809#9 27218101 -466974177#0 -466974177#1 27218103#1 27218103#0 -157483942#5"/>
    </person>
    <person id="ped23" depart="23.00">
        <walk edges="473691620#3 -386278913#2 -386278913#1 -386278913#0 -4902394#5 327764057#0 27570526#3 27570526#1 27570526#0 549939609#6 252482722 4523223#2 -4902415#3 -4902415#2 -4902415#1 -4770307#4"/>
    </person>
    <person id="ped24" depart="24.00">
        <walk edges="27951321#0 245234770#3 245234770#4 245234770#5 245234770#6 245234770#7 245234770#8 245234770#9 245234770#10 245234770#11 245234770#12 245234770#14 245234770#15 250338821#0 252482724 245546843#2 245546843#1 245546843#0 245546840 252482711#5 252482711#4 252482711#3 252482711#2 252482711#1 252482711#0 255915631 27558790#1 27558790#2 229479593 27558789#2 27558788#1 122735186#0"/>
    </person>
    <person id="ped25" depart="25.00">
        <walk edges="4902399 -4902418#2 -4902418#3 -4902418#4 4902451#1 -4902436#0 -549928646#1 -549928646#0 549928642#0 549928642#1 549928642#2 549928642#3 549928651 4523223#0 4523223#1 252482722 549939609#5 549939609#3 549939609#2 549939609#1 27490672#2 27490672#1 27490672#0 549941138#0 245560600#6 245560600#5 245560600#4 245560600#3 245560600#2 245560600#1 221888674#2"/>
    </person>
    <person id="ped27" depart="27.00">
        <walk edges="88497950 -248521918 -245234778 -420565930 -109496234 245546852"/>
    </person>
    <person id="ped29" depart="29.00">
        <walk edges="8430747 229481726#1 506460196#1 506460196#0 320070573#6 4560178#0 4560178#1 442026556#0 331379640 252482714 332277140 245546853#1 245546853#0 -27952553 -245234780 -245234779 -250299199 -345049503 27951304#6 27951330#0 27951330#1 27952558 248521903#0 248521901"/>
    </person>
    <person id="ped30" depart="30.00">
        <walk edges="549939606#6 4770191#10 -4770191#9 -4770191#8 -4770191#7 -4770191#6 -4770191#5 -4770191#3 4770307#0 4770307#1 -4770307#2 -4902389#0 245553663#8 245553663#9 245553663#10 -143331532#1 -506329457#2 -473679813 -351479491 -473679810#3 473679810#2 473679810#1"/>
    </person>
    <person id="ped32" depart="32.00">
        <walk edges="28788380 -473691620#2 -386278913#2 27490679#4 -327764053 327764054#0 327764054#1 27840841#4 -221893278 -28885076#1 221893219#0 221893219#1 386278899 249697090#2 249697118"/>
    </person>
    <person id="ped33" depart="33.00">
        <walk edges="-425383184#1 4877455#1 4877454 -462566121 -462566123 -550873590 -550732345 550745968 550741745 550757841 550725735#0 550749977 418990606 4902378#0 4902378#1 549917967 319453543#0 27490680 -28788368#1 -28788368#0 -28788371#0 -28788370#0 -179109642#1 27803780#1 -341224416 341224415#0 341224415#1 -28788382#4 27840841#1"/>
    </person>
    <person id="ped35" depart="35.00">
        <walk edges="168645111#3 27218104#2 27218104#3 27218104#4 466991750#0 466991750#1 27218105 -409594648 -143331532#1 4902433#0 4902433#1 4902433#2 4902433#3 4902433#4 4902433#5 4902433#6 4902433#7 4902433#8 4902433#9 -4902433#10 4902374#3 4902374#2 4902374#1 4902374#0 327956373#1 327956373#0 327956372 401773368 319447428#3 319447428#2 319447428#1 380438949#1 -39368524#2 473691590#0 518474575"/>
    </person>
    <person id="ped36" depart="36.00">
        <walk edges="473691620#2 -473691620#1 -473691620#0 -28788377#1 -28788377#0 -27490679#1 -386278945 386278944#0 549939609#3 245234847 4523223#4 4523223#3 4902415#3 4902415#2 4902415#1 4770307#4 -4902426#0 245553663#10 -143331532#1 -409594648"/>
    </person>
    <person id="ped37" depart="37.00">
        <walk edges="245234801#0 4523223#6 4523223#5 4523223#4 4523223#3 4523223#2 252482722 549939609#6 549939609#7 -28788387#1 -27570527#1 28788360#1 -28788361#0"/>
    </person>
    <person id="ped38" depart="38.00">
        <walk edges="4902394#3 4902394#4 -327764057#1 -327764057#2 -327764055 473691608#3 473691604#0 473691604#1"/>
    </person>
    <person id="ped39" depart="39.00">
        <walk edges="-473691601#1 -28788382#3 -28788382#4 341224415#1 341224415#0 -341224416 27803780#1 -179109642#1 -179109642#2 27840840#1 27840840#0"/>
    </person>
    <person id="ped40" depart="40.00">
        <walk edges="27571488#3 27571744 248521868#0 -409581860#13 -409581860#12 -409581860#11 -409581860#10 -409581860#9 458059909 245234795#4 27572158 -27572154#1"/>
    </person>
    <person id="ped41" depart="41.00">
        <walk edges="409581860#4 409581860#5 409581860#6 409581860#7 409581860#9 409581860#10 27571482 -27571848#1 -27571848#0 248521917#2"/>
    </person>
    <person id="ped42" depart="42.00">
        <walk edges="-143331551#2 -143331551#1 -143331551#0 157483950#1 157483950#2 -157483950#3 -157483950#4 -157483950#5 -157483950#6 -473679810#0 -473679810#1 -473679810#2 -473679810#3 -351479491 -473679813 -506329457#2 143331532#1 -4902433#0 -4902433#1 4902433#2 4902433#3 4902433#4 4902433#5 4902433#6 4902433#7 4902433#8 4902433#9"/>
    </person>
    <person id="ped43" depart="43.00">
        <walk edges="-4770191#1 550753287#5 550753287#6 4727807#3 4727807#4 4727810 -4727809#12 -4727809#11 -4727809#10 -4727809#9 27218101 -466974177#0 -466974177#1 -466974177#2 -168645107#0"/>
    </person>
    <person id="ped44" depart="44.00">
        <walk edges="475370192#0 475370192#1 -409581861#1 -409581861#0 27570958#5 27570958#4 27570958#3 27570958#2 27570958#1 501500451"/>
    </person>
    <person id="ped45" depart="45.00">
        <walk edges="-244074953#2 244074953#3 244074953#4 -47221486#0 312299087#1 27558749#3 27558749#2 27558752 27558746#0 24187047#0"/>
    </person>
    <person id="ped46" depart="46.00">
        <walk edges="-221893217#4 -221893217#2 -221893217#1 -548651990#1 490522132 490522365#0 490522365#1 319453543#5 319453543#4 161392072 161392073#0 319453543#2 319453543#1 319453543#0 549917967 327956373#0 327956373#1 4902374#0 4902374#1 4902374#2 4902374#3 -4902433#10 4902433#9 4902433#8 4902433#7 4902433#6 4902433#5 4902433#4 4902433#3 4902433#2 4902433#1 4902433#0 -143331532#1 -409594648 27218105 473679812 -157483940#0 -157483940#1 -157483940#2 -157483940#3 386114778#0 -157483942#3 -157483942#2 -157483942#1 386114790"/>
    </person>
    <person id="ped48" depart="48.00">
        <walk edges="229479576 24187388 330560181 27951276 245546853#0 201638044 250338817#8 250299211 252482711#3 252482711#4 252482711#5 245546840 245546843#0 245546843#1 245546843#2 252482724"/>
    </person>
    <person id="ped50" depart="50.00">
        <walk edges="157642260#2 157642260#1 157642260#0 -473679810#1 -473679810#0 -157483950#6 -157483950#5 -157483950#4 -157483950#3 157483950#2 -345332014"/>
    </person>
    <person id="ped51" depart="51.00">
        <walk edges="-340955664 340955662 -27570527#5 -27570527#4 -27570527#3 -27570527#2 -27570527#1 -28788387#1 549939609#7 549939609#6 549939609#5 549939609#3 549939609#2 549939609#1 549939609#0 549939606#2 549939606#3 549939606#4 549939606#5 549939606#6 27467650#0 27467650#1 -4770195#1"/>
    </person>
    <person id="ped52" depart="52.00">
        <walk edges="161392059#0 161389765 319453543#6 319453543#5 319453543#4 161392072 161392073#0 319453543#2 319453543#1 319453543#0 549917967 327956373#0 327956373#1 327956374 549928635 549928642#0 549928642#1 -4902426#4 -4902426#3 4902426#2 4902426#1 4770307#4 4770307#3 4770307#2 4770307#1 245553663#6"/>
    </person>
    <person id="ped53" depart="53.00">
        <walk edges="-4902415#2 -4902415#3 4523223#2 252482722 549939609#6 549939609#7 -28788387#1 -27570527#1 27570527#2"/>
    </person>
    <person id="ped54" depart="54.00">
        <walk edges="-386114179 -168645103#2 345332034#0 345332034#1 -27218104#0 -168645107#4 -168645107#3 -27218103#4 -27218103#3 27218103#2 466974177#1 466974177#0 27218101 -4727809#9 -4727809#10 -4727809#11 -386113076#0 -386113076#1"/>
    </person>
    <person id="ped56" depart="56.00">
        <walk edges="-386114169 386114169 4727808#1 4727808#0 4727807#4 4727807#3 550753287#6 550753287#5 245553663#6 4770307#1 4770307#2 4770307#3 4770307#4 4902426#1 -4902409 -4902375#0 -4902371#1 4902371#2 4902419#0 4902372#0"/>
    </person>
    <person id="ped58" depart="58.00">
        <walk edges="4902450#3 4902446 4523223#5 245234847 549939609#3 386278944#0 -386278945 27490676"/>
    </person>
    <person id="ped59" depart="59.00">
        <walk edges="229479573#1 -229479573#0 24187388 330560181 27951276 245546853#0 201638044 250338817#8 250299211 252482711#3 252482711#4 252482711#5 245546840 245546843#0 245546843#1 245546843#2 252482724 250338821#0 245234770#15 245234770#14 245234770#12 245234770#11 245234770#10 245234770#9 109496233#0 245234785 27571743 -422210051 109496226#2 109496226#1 109496226#0 -346317015 422062696#1"/>
    </person>
    <person id="ped60" depart="60.00">
        <walk edges="4629513#0 255915638#1 255915638#0 402701252 402701251 8149966#2 8149966#1 8149966#0 4727925#1 4727925#0 549939606#7 549939606#6 549939606#5 549939606#4 549939606#3 549939606#2 549939609#0 549939609#1 549939609#2 549939609#3 549939609#5 549939609#6 27570526#0 27570526#1 28788388#0 -28788388#1"/>
    </person>
    <person id="ped61" depart="61.00">
        <walk edges="-249697140 249697087#2 4734475#0 4734475#1 4734475#2 4734475#3 249697118 249697090#1 249697090#0 550860118#3 550860118#2 550860118#1 161389764 -550865716 -4734472 341224412 490522365#1 319453543#5 319453543#4 161392072 161392073#0 319453543#2 319453543#1 319453543#0 549917967 327956373#0 327956373#1 4902374#0 4902374#1 4902374#2 4902374#3 -4902433#10 -4902433#9 -4902433#8 -4902433#7 4902454 -4902372#2 -4902372#1 -4902372#0 4902419#1 -157643736#5 157643736#4 343764294 157643733#2 157643733#1 157643733#0"/>
    </person>
    <person id="ped62" depart="62.00">
        <walk edges="157642269#0 157642287#3 157642287#2 157642287#1 157642287#0 -473679814#2 -345328736 157642260#1 -157643735#1 -157643730#1 -506329457#1 -506329457#2 143331532#1 -4902433#0 -4902433#1 4902433#2 4902433#3 4902433#4 4902433#5 4902433#6 4902433#7 4902433#8 4902433#9 -4902433#10 4902374#3 4902374#2 4902374#1 4902374#0 327956373#1 327956373#0 549917967 319453543#0 319453543#1 319453543#2 161392073#0 -27467656 -28885074#0 -27467655#3 221893237"/>
    </person>
    <person id="ped63" depart="63.00">
        <walk edges="156251563 255915655 402701248 550753287#7 550753287#6 550753287#5 245553663#6 4770307#1 4770307#2 4770307#3 4770307#4 4902426#1 -4902409 -4902375#0 -4902371#1 4902371#2 4902433#3 4902433#4 4902433#5 4902433#6 4902433#7 4902433#8 4902433#9 -4902433#10 -4902436#0 4902451#1 -4902418#4 -4902418#3 -4902418#2 -4902418#1"/>
    </person>
    <person id="ped64" depart="64.00">
        <walk edges="473679812 27218105 -409594648 -143331532#1 245553663#10 245553663#9 245553663#8 -4902389#0 -4770307#2 386223023#0 386223025#1 -386223027"/>
    </person>
    <person id="ped65" depart="65.00">
        <walk edges="-28788388#1 28788388#1 28788388#0 27570526#1 27570526#0 549939609#6 252482722 4523223#2 -4902415#3 -4902415#2 -4902415#1 4770307#4 -4902426#0 245553663#10 -143331532#1 -409594648 27218105 168645104#1 168645103#3 168645103#2 168645103#1 168645105#1"/>
    </person>
    <person id="ped66" depart="66.00">
        <walk edges="157642252 -157642252 157642287#2 157642287#1 157642287#0 -473679814#2 -345328736 157642260#1 -157643735#1 -157643730#1 -506329457#1 473679813 27218105 -466991750#1"/>
    </person>
    <person id="ped67" depart="67.00">
        <walk edges="-386278913#0 -4902394#5 327764057#0 27570526#3 27570526#1 27570526#0 549939609#6 252482722 4523223#2 -4902415#3 -4902415#2 -4902415#1 -4770307#4 4902426#0"/>
    </person>
    <person id="ped68" depart="68.00">
        <walk edges="161392079#1 161392079#0 550865728 161392073#0 319453543#2 319453543#1 319453543#0 549917967 327956373#0 327956373#1 4902374#0 4902374#1 4902374#2 4902374#3 -4902433#10 4902433#9 4902433#8 4902433#7 4902433#6 4902433#5 4902433#4 4902433#3 4902433#2 -4902433#1 -4902433#0 143331532#1 -506329457#2 -473679813 -351479491 473679810#3"/>
    </person>
    <person id="ped69" depart="69.00">
        <walk edges="96494351#0 475370191#0 475370191#1 245234795#0 245234795#2 27572159 53172877#0 -27572162#3 -27572162#2 -27572162#1 -27572162#0 -47221485#0 -312299088#2 47223657 47223646#9 47223647 47223648#0 47223648#1 47223648#2 47223651#3 47223651#2"/>
    </person>
    <person id="ped70" depart="70.00">
        <walk edges="549928651 549928642#3 549928642#2 549928642#1 549928642#0 -549928646#0 -549928646#1 4902433#10"/>
    </person>
    <person id="ped71" depart="71.00">
        <walk edges="4727809#10 4727809#11 4727809#12 4727810 4727807#4 4727807#3 550753287#6 550753287#5 245553663#6 4770307#1 4770307#2 4902389#1 4902450#2 4902446 4523223#5 245234847 28885078 4902394#7 386278913#0 28788382#0 28788382#1 28788382#2 28788382#3 27840841#2 -27840841#3"/>
    </person>
    <person id="ped72" depart="72.00">
        <walk edges="143331551#5 143331551#4 143331551#3 143331551#2 -143331551#1 -143331551#0 157483950#1 157483950#2 -157483950#3 -157483950#4 -157483950#5 -157483950#6 -473679810#0 -473679810#1 -473679810#2 -473679810#3 -351479491 -473679813 473679813 27218105 466991750#1 466991750#0 27218104#4 27218104#3 -27218104#2 -168645111#2 466991752 -168645107#2"/>
    </person>
    <person id="ped73" depart="73.00">
        <walk edges="-422062696#0 -422062696#1 443606344 -346317016 -122735167 -109496226#2 -122735156#0 -122735156#1 420565930"/>
    </person>
    <person id="ped74" depart="74.00">
        <walk edges="179109642#0 -28885055#0 341224416 28788366 27840836 161392064#4 161392064#3 4902416#2 4902416#0 4902433#10 4902433#9 4902433#8 4902433#7 4902433#6 4902433#5 4902433#4 4902433#3 4902433#2 -4902433#1 -4902433#0 143331532#1 -506329457#2 -506329457#1 -157643730#1 -157643735#1 157642260#1 157642260#2"/>
    </person>
    <person id="ped79" depart="79.00">
        <walk edges="4774365#2 4774365#1 4774365#0 -550873590 4877453 -143331549#0 -143331549#1 143331549#2 157643736#4 343764294 157643733#2 157643733#1 -157643725#0 157643725#1 157642269#1 -157643732#1 -386114796"/>
    </person>
    <person id="ped80" depart="80.00">
        <walk edges="27570957#1 27570957#0 401262992#0 27570956#1 27570956#0 443606340 443606341#0 443606341#1 501499001 248521922#0 27571476#1 27571743 245234785 109496233#0 245234770#9 245234770#10 245234770#11 245234808 248521874#2 27571849#5 27571849#4 27571849#3 27571849#2"/>
    </person>
    <person id="ped81" depart="81.00">
        <walk edges="247833381#0 550867442#0 550687523#1 161392076 550687525 -4734472 341224412 490522365#1 319453543#5 319453543#4 161392072 161392073#0 319453543#2 319453543#1 319453543#0 161392064#5 161392064#4 161392064#3 161392064#1 161392064#0 327764059#1 327764059#0 549928651 4523223#0 4523223#1 4523223#2 4523223#3 4902423 4902450#3 4902450#2 4902450#1 4902450#0"/>
    </person>
    <person id="ped82" depart="82.00">
        <walk edges="-343764294 -157643736#4 143331549#2 143331549#1 -4877455#0 -4877455#1 425383184#1 -344113927 344113927"/>
    </person>
    <person id="ped84" depart="84.00">
        <walk edges="-4774366 4774365#2 4774365#1 4774365#0 -550873590 4877453 -143331549#0 -143331549#1 -143331549#2 -143331549#3 -506329457#0 -506329457#1 473679813 27218105 466991750#1 466991750#0 27218104#4 27218104#3 -27218104#2 -27218104#1 -27218104#0 -168645107#4 -168645107#3 -27218103#4 -27218103#3 -27218103#2 -466974177#1 -466974177#0 -27218101 -4727809#8 -4727809#7 -386114196 386114192#2 386114194"/>
    </person>
    <person id="ped85" depart="85.00">
        <walk edges="-221893237 221893215#1 221893215#2 511815818 -27467658#2 -27467658#0 27840841#4 327764054#1 327764054#0 -327764053 -27490679#4 -27490679#3 -27490679#2 -27490679#1 -27490676 27490674 549939609#1 27490672#2 27490672#1 27490672#0 549941138#0 245560600#6 245560600#5 245560600#4 245560600#3 245560600#2 245560600#1 221888674#2 221888674#1 221888674#0"/>
    </person>
    <person id="ped86" depart="86.00">
        <walk edges="96494347#0 -248521868#1 -248521868#2 -248521868#3 250338884 245546843#3 245546843#2 245546843#1 245546843#0 245546840 252482711#5 252482711#4 252482711#3 252482711#2 252482711#1 252482711#0 255915631 4560178#2 4560178#1 4560178#0 320070573#6 506460196#0 506460196#1 229481726#1 8430747"/>
    </person>
    <person id="ped87" depart="87.00">
        <walk edges="-221893243 27490670#1 27490670#2 27490671 549941138#0 27490672#0 27490672#1 27490672#2 549939609#1 549939609#2 549939609#3 245234847 4523223#4 4523223#3 4902415#3 4902415#2 4902415#1 4770307#4 -4902426#0 245553663#10 -143331532#1 -506329457#2 -506329457#1 -157643730#1 -157643735#1 157642260#1 -345328736 -473679814#2 157642287#0 157642287#1 157642287#2 157642287#3 157642269#0 157642269#1 -157643732#1 -345332022"/>
    </person>
    <person id="ped88" depart="88.00">
        <walk edges="4770190#2 -4770192 4770307#0 4770307#1 4770307#2 4770307#3 4770307#4 4902426#1 -4902409 -4902375#0 -4902371#1 4902371#2 4902433#3 4902433#4 4902433#5 4902433#6 4902433#7 4902433#8 -4902433#9 476128412#1"/>
    </person>
    <person id="ped92" depart="92.00">
        <walk edges="27951316 27952559#2 27952559#3 245234770#1 245234770#2 245234770#3 245234770#4 245234770#5 245234770#6 245234770#7 245234770#8 245234770#9 245234770#10 245234770#11 245234808 248521874#1 -27571484#0 -122735155"/>
    </person>
    <person id="ped93" depart="93.00">
        <walk edges="466974183 466991750#0 466991750#1 27218105 -409594648 -143331532#1 245553663#10 -4902426#0 4770307#4 -4902415#1 -4902415#2 -4902415#3 4523223#2 252482722 549939609#6 27570526#0 27570526#1 27570526#3 327764057#0 327764057#1 327764057#2 -327764055 473691608#3 -473691604#0 -473691604#1"/>
    </person>
    <person id="ped95" depart="95.00">
        <walk edges="-27571485#0 27571484#5 -27571484#6 248521868#2 248521868#1 248521868#0 -409581860#13 -409581860#12 -409581860#11 -409581860#10 -27571857 -245234795#2 -27572154#0 53172877#0 -27572162#3 -27572162#2 -27572162#1 27572162#0 -27558754#0 -27558754#1 -27558754#2 -27558754#3 27558754#4 248521923#1 248521923#2 360359321#1 442026898#0 27558694 -27558694"/>
    </person>
    <person id="ped96" depart="96.00">
        <walk edges="-27218103#2 466974177#1 466974177#0 27218101 -4727809#9 -4727809#10 -4727809#11 -4727809#12 4727810 -4727807#4 -4727807#3 550753287#7 402701248 255915655 255915649"/>
    </person>
    <person id="ped97" depart="97.00">
        <walk edges="344144147#1 344144147#2 473684641#0 473684641#1 550712035 -550712033 550867442#2 -550867442#2 -550867442#1 -550867442#0 -229481708#2 -229481708#0 402922224 380438949#0 380438949#1 319447428#1 319447428#2 319447428#3 8148885#0 8148885#1 4559074#0 4559074#1 4559074#2 4559074#3 4559074#4 4559074#5 4559074#6 4559074#7 4559005#0 550725735#0 550757841 550741745 550745968 550732345 4877453 -143331549#0 -4877455#0 -4877455#1 -344113928 -343763223#0"/>
    </person>
    <person id="ped98" depart="98.00">
        <walk edges="27572166 -27572162#1 -27572162#0 -47221485#0 -312299088#2 -312299088#1 -312299088#0 -410069075#0"/>
    </person>
    <person id="ped99" depart="99.00">
        <walk edges="157642269#0 157642287#3 157642287#2 157642287#1 157642287#0 -473679814#2 -345328736 157642260#1 -157643735#1 -157643730#1 -506329457#1 473679813 27218105 466991750#1 466991750#0 27218104#4 27218104#3 -27218104#2 -27218104#1 -27218104#0 -168645107#4 -168645107#3 -27218103#4 -27218103#3 -27218103#2 -466974177#2"/>
    </person>
    <person id="ped102" depart="102.00">
        <walk edges="386114161 -386114160#0 -4727809#11 -4727809#12 4727810 4727807#4 4727807#3 4727807#1 4727807#0 8149966#1 -8149966#0 4727926#0 255915632#1"/>
    </person>
    <person id="ped103" depart="103.00">
        <walk edges="-221893269 245560600#5 549939606#4 549939606#5 -4770191#10 -4770191#9 -4770191#8 -4770191#7 -4770191#6 4770191#5"/>
    </person>
    <person id="ped104" depart="104.00">
        <walk edges="47223650#0 47223651#0 47223648#2 47223653#1 47223643#1 47223643#2 47223640#4 47223640#3 47223640#2 47223640#1 47223640#0 47221486#1 244074953#4 244074953#3 244074953#2 244074953#1 244074953#0 27558787"/>
    </person>
    <person id="ped105" depart="105.00">
        <walk edges="-27571851 409581860#7 409581860#9 409581860#10 27571482 -27571848#1 27571848#0 -27571849#0 -27571849#1 -27571849#2 -27571849#3 -27571849#4 -27571849#5 248521874#2 245234808 245234770#11 245234770#10 245234770#9 109496233#0 245234785 27571743 27571476#1 248521922#0 501499001 443606341#1 443606341#0 443606340 443606339 401262992#3 401262992#2 501500253 27570952 -27570952"/>
    </person>
    <person id="ped106" depart="106.00">
        <walk edges="-4770191#3 -4770191#1 550753287#5 -4873772 4873773#1 4873773#2 4873773#3"/>
    </person>
    <person id="ped107" depart="107.00">
        <walk edges="4873773#3 4873773#2 4873773#1 -4873772 550753287#5 550753287#4 -143331532#1 -506329457#2 -473679813 -351479491 -473679810#3 -473679810#2 -473679810#1 -473679810#0 -157483950#6 -345328742#3"/>
    </person>
    <person id="ped108" depart="108.00">
        <walk edges="-386278913#0 4902394#7 28885078 549939609#3 549939609#2 549939609#1 549939609#0 549939606#2 549939606#3 549939606#4 549939606#5 -4770191#10 -4770191#9 -4770191#8 -4770191#7 -27016563#1 -27016573#2"/>
    </person>
    <person id="ped112" depart="112.00">
        <walk edges="-4902394#2 -4902394#1 -4902394#0 28788362 549928646#0 549928646#1 4902436#0 -4902451#0 4902447 4902377#2 4902440#1 4902440#2"/>
    </person>
    <person id="ped113" depart="113.00">
        <walk edges="4559074#5 4559074#6 4559074#7 4559005#0 4559084 550753287#0 550753287#1 550753287#2 -157643736#5 -143331549#3 506329457#0 -157643730#1 -157643735#1 157642260#1 -345328736 -473679814#2 -157642287#0 -157642287#1 473679815"/>
    </person>
    <person id="ped115" depart="115.00">
        <walk edges="426799412#1 426799412#2 426799412#3 426799412#4 4727926#0 -8149966#0 8149966#1 4727807#0 4727807#1 4727807#3 4727807#4 4727810 -4727809#12 -4727809#11 -4727809#10 -4727809#9 27218101 466974177#0 466974177#1 27218103#2 -27218103#3 -27218103#4 -168645107#3 -168645107#4 -27218104#0"/>
    </person>
    <person id="ped116" depart="116.00">
        <walk edges="473691608#1 -27570528#4 -27570528#3 27570527#5 340955662 27803780#2 27803780#1 -179109642#1 -28788370#0 28788371#0 28788368#0 28788368#1 -27490680 319453543#1 319453543#2 161392073#0 161392072 319453543#4 319453543#5 490522365#1 341224412 -4734472 550687525 161392076 550687523#1 550867442#0 247833381#0 247833381#1 4734476#0"/>
    </person>
    <person id="ped117" depart="117.00">
        <walk edges="-386113080 -386113076#2 -386113076#1 -386113076#0 -4727809#11 -4727809#10 -4727809#9 27218101 466974177#0 466974177#1 27218103#2 -27218103#3 -27218103#4 -168645107#3 -168645107#4 -27218104#0 345332034#1 345332034#0 -168645103#2 -168645103#3 466974180#1"/>
    </person>
    <person id="ped118" depart="118.00">
        <walk edges="221893210#1 221893210#0 27490670#2 27490670#1 27490670#0 549941140#2 549939606#4 549939606#5 -4770191#10 -4770191#9 -4770191#8 -4770191#7 -4770191#6 -4770191#5 -4770191#3 4770191#1 245553663#5 245553663#4 -4770189#0"/>
    </person>
    <person id="ped120" depart="120.00">
        <walk edges="-4902375#0 -4902371#1 -4902371#2 4902433#2 -4902433#1 -4902433#0 143331532#1 -506329457#2 506329457#1 157643730#1 157643735#1 157643735#0 157643728 506271618#3 473679816#2 473679816#1 473679816#0"/>
    </person>