<?xml version="1.0"?>
<!-- generated on 2018-01-15 22:06:24.550573 by $Id: randomTrips.py 23999 2017-04-21 09:04:47Z behrisch $
  options: create
-->
<routes xmlns:xsi="http://www.w3.org/2001/XMLSchema-instance" xsi:noNamespaceSchemaLocation="http://sumo.dlr.de/xsd/routes_file.xsd">
    <vType id="passenger" vClass="passenger" />
    <trip id="pas0" depart="0.00" from="27558694" to="-143331551#4" type="passenger"/>
    <trip id="pas1" depart="10.00" from="109496226#2" to="-157423551#0" type="passenger"/>
    <trip id="pas2" depart="20.00" from="-345332043#1" to="245234796#2" type="passenger"/>
    <trip id="pas3" depart="30.00" from="-156251563" to="-28885076#0" type="passenger"/>
    <trip id="pas4" depart="40.00" from="-351479491" to="27558789#2" type="passenger"/>
    <trip id="pas5" depart="50.00" from="39368522#2" to="-122735160#0" type="passenger"/>
    <trip id="pas6" depart="60.00" from="-4770196#0" to="-27571744" type="passenger"/>
    <trip id="pas7" depart="70.00" from="-229481708#0" to="-244074953#1" type="passenger"/>
    <trip id="pas8" depart="80.00" from="4629513#0" to="27571482" type="passenger"/>
    <trip id="pas9" depart="90.00" from="386278945" to="386113080" type="passenger"/>
    <trip id="pas10" depart="100.00" from="221893285#0" to="549941138#0" type="passenger"/>
    <trip id="pas11" depart="110.00" from="-4902450#4" to="252482715#3" type="passenger"/>
    <trip id="pas12" depart="120.00" from="426799412#3" to="27571850#3" type="passenger"/>
    <trip id="pas13" depart="130.00" from="47221489" to="27490676" type="passenger"/>
    <trip id="pas14" depart="140.00" from="27951305#3" to="-157483950#0" type="passenger"/>
    <trip id="pas15" depart="150.00" from="-386113080" to="-473691601#0" type="passenger"/>
    <trip id="pas16" depart="160.00" from="-221893235" to="-386114193" type="passenger"/>
    <trip id="pas17" depart="170.00" from="-245234796#0" to="-4727809#5" type="passenger"/>
    <trip id="pas18" depart="180.00" from="27490670#1" to="10787528" type="passenger"/>
    <trip id="pas19" depart="190.00" from="-386114781" to="501500253" type="passenger"/>
    <trip id="pas20" depart="200.00" from="-27840841#0" to="386113080" type="passenger"/>
    <trip id="pas21" depart="210.00" from="-27572173#0" to="122735168#1" type="passenger"/>
    <trip id="pas22" depart="220.00" from="550860118#0" to="27951260" type="passenger"/>
    <trip id="pas23" depart="230.00" from="245234770#3" to="28885040#1" type="passenger"/>
    <trip id="pas24" depart="240.00" from="4559084" to="386223027" type="passenger"/>
    <trip id="pas25" depart="250.00" from="-345049503" to="511817674" type="passenger"/>
    <trip id="pas26" depart="260.00" from="27570527#3" to="143331551#7" type="passenger"/>
    <trip id="pas27" depart="270.00" from="4806304#0" to="183017632" type="passenger"/>
    <trip id="pas28" depart="280.00" from="-386114779#1" to="-386278913#1" type="passenger"/>
    <trip id="pas29" depart="290.00" from="247833371#1-AddedOnRampEdge" to="4902373" type="passenger"/>
    <trip id="pas30" depart="300.00" from="-523058452" to="-351479491" type="passenger"/>
    <trip id="pas31" depart="310.00" from="96097829#0" to="245234850#2" type="passenger"/>
    <trip id="pas32" depart="320.00" from="-229479575#1" to="-157483950#2" type="passenger"/>
    <trip id="pas33" depart="330.00" from="-249697140" to="27572161" type="passenger"/>
    <trip id="pas34" depart="340.00" from="386114193" to="157642287#1" type="passenger"/>
    <trip id="pas35" depart="350.00" from="-168645103#1" to="122735176#2" type="passenger"/>
    <trip id="pas36" depart="360.00" from="8430747" to="248521874#0" type="passenger"/>
    <trip id="pas37" depart="370.00" from="27571849#5" to="249697090#3" type="passenger"/>
    <trip id="pas38" depart="380.00" from="-386114781" to="27951260" type="passenger"/>
    <trip id="pas39" depart="390.00" from="143331551#4" to="522933336" type="passenger"/>
    <trip id="pas40" depart="400.00" from="4734472" to="-458268603" type="passenger"/>
    <trip id="pas41" depart="410.00" from="161392075#1" to="-27951322#1" type="passenger"/>
    <trip id="pas42" depart="420.00" from="4774376" to="475370191#0" type="passenger"/>
    <trip id="pas43" depart="430.00" from="-443606344" to="27840841#3" type="passenger"/>
    <trip id="pas44" depart="440.00" from="250338867" to="-27571495#0" type="passenger"/>
    <trip id="pas45" depart="450.00" from="344144147#2" to="249697138" type="passenger"/>
    <trip id="pas46" depart="460.00" from="360359321#0" to="248521901" type="passenger"/>
    <trip id="pas47" depart="470.00" from="-10785858#1" to="-4902394#7" type="passenger"/>
    <trip id="pas48" depart="480.00" from="-122735192" to="4902474" type="passenger"/>
    <trip id="pas49" depart="490.00" from="4734476#0" to="466974189" type="passenger"/>
    <trip id="pas50" depart="500.00" from="-466974189" to="-157643731#0" type="passenger"/>
    <trip id="pas51" depart="510.00" from="-221893275" to="229481708#2" type="passenger"/>
    <trip id="pas52" depart="520.00" from="345328736" to="-27467658#0" type="passenger"/>
    <trip id="pas53" depart="530.00" from="157483950#0" to="252482711#2" type="passenger"/>
    <trip id="pas54" depart="540.00" from="-386114779#2" to="476128412#1" type="passenger"/>
    <trip id="pas55" depart="550.00" from="122735128#1" to="-345328749#1" type="passenger"/>
    <trip id="pas56" depart="560.00" from="229479575#1" to="386114158" type="passenger"/>
    <trip id="pas57" depart="570.00" from="-28885076#2" to="-486221978" type="passenger"/>
    <trip id="pas58" depart="580.00" from="8154721#2" to="27951311" type="passenger"/>
    <trip id="pas59" depart="590.00" from="122735176#1" to="245553663#15" type="passenger"/>
    <trip id="pas60" depart="600.00" from="-4770193" to="27558788#2" type="passenger"/>
    <trip id="pas61" depart="610.00" from="-386114158" to="-358457707#0" type="passenger"/>
    <trip id="pas62" depart="620.00" from="-221888727" to="27572173#1" type="passenger"/>
    <trip id="pas63" depart="630.00" from="-386113080" to="4902401" type="passenger"/>
    <trip id="pas64" depart="640.00" from="472142225" to="-168645104#0" type="passenger"/>
    <trip id="pas65" depart="650.00" from="-386114163" to="27952559#1" type="passenger"/>
    <trip id="pas66" depart="660.00" from="-345328742#1" to="-27558694" type="passenger"/>
    <trip id="pas67" depart="670.00" from="157483947#1" to="386579161" type="passenger"/>
    <trip id="pas68" depart="680.00" from="386579171" to="-28788374#0" type="passenger"/>
    <trip id="pas69" depart="690.00" from="-244074953#0" to="161389756#0" type="passenger"/>
    <trip id="pas70" depart="700.00" from="122735130" to="221893219#2" type="passenger"/>
    <trip id="pas71" depart="710.00" from="550725735#0" to="-245234780" type="passenger"/>
    <trip id="pas72" depart="720.00" from="-53172877#1" to="-4902450#3" type="passenger"/>
    <trip id="pas73" depart="730.00" from="47221489" to="-39368522#0" type="passenger"/>
    <trip id="pas74" depart="740.00" from="-28788374#1" to="162154116#2" type="passenger"/>
    <trip id="pas75" depart="750.00" from="109496226#2" to="-4727809#7" type="passenger"/>
    <trip id="pas76" depart="760.00" from="122735201#0" to="473691601#0" type="passenger"/>
    <trip id="pas77" depart="770.00" from="24184195#3" to="-157642252" type="passenger"/>
    <trip id="pas78" depart="780.00" from="531846850" to="4902451#0" type="passenger"/>
    <trip id="pas79" depart="790.00" from="4629513#1" to="-27572156" type="passenger"/>
    <trip id="pas80" depart="800.00" from="-523061813" to="-157643732#0" type="passenger"/>
    <trip id="pas81" depart="810.00" from="-4902450#4" to="550860119#2" type="passenger"/>
    <trip id="pas82" depart="820.00" from="-386114779#2" to="386579161" type="passenger"/>
    <trip id="pas83" depart="830.00" from="157422557#0" to="157642287#4" type="passenger"/>
    <trip id="pas84" depart="840.00" from="506271618#3" to="88497949#1" type="passenger"/>
    <trip id="pas85" depart="850.00" from="245234770#11" to="345332018#1" type="passenger"/>
    <trip id="pas86" depart="860.00" from="-27571857" to="-4770189#0" type="passenger"/>
    <trip id="pas87" depart="870.00" from="531846850" to="27558703" type="passenger"/>
    <trip id="pas88" depart="880.00" from="229481726#0" to="386114184#0" type="passenger"/>
    <trip id="pas89" depart="890.00" from="-157643733#2" to="27558754#1" type="passenger"/>
    <trip id="pas90" depart="900.00" from="-27572156" to="528715329" type="passenger"/>
    <trip id="pas91" depart="910.00" from="-221893237" to="-28031869#3" type="passenger"/>
    <trip id="pas92" depart="920.00" from="248870340#0" to="28788368#1" type="passenger"/>
    <trip id="pas93" depart="930.00" from="248521923#3" to="27571852" type="passenger"/>
    <trip id="pas94" depart="940.00" from="183017632" to="501498999" type="passenger"/>
    <trip id="pas95" depart="950.00" from="-327764057#2" to="345328748" type="passenger"/>
    <trip id="pas96" depart="960.00" from="-386114164" to="143331551#7" type="passenger"/>
    <trip id="pas97" depart="970.00" from="27571486" to="-4770191#7" type="passenger"/>
    <trip id="pas98" depart="980.00" from="-221888735" to="183017602" type="passenger"/>
    <trip id="pas99" depart="990.00" from="96097834" to="88497949#2" type="passenger"/>
    <trip id="pas100" depart="1000.00" from="-221893210#1" to="-345332018#0" type="passenger"/>
    <trip id="pas101" depart="1010.00" from="-386114779#2" to="501498996" type="passenger"/>
    <trip id="pas102" depart="1020.00" from="-4902433#5" to="-27571848#3" type="passenger"/>
    <trip id="pas103" depart="1030.00" from="250338892" to="550867442#2" type="passenger"/>
    <trip id="pas104" depart="1040.00" from="27570526#1" to="-122735162" type="passenger"/>
    <trip id="pas105" depart="1050.00" from="409581860#9" to="-4770191#5" type="passenger"/>
    <trip id="pas106" depart="1060.00" from="27571469#0" to="501500451" type="passenger"/>
    <trip id="pas107" depart="1070.00" from="-27570527#2" to="-252482715#5" type="passenger"/>
    <trip id="pas108" depart="1080.00" from="-249697087#2" to="252482715#6" type="passenger"/>
    <trip id="pas109" depart="1090.00" from="-386114797" to="27571483#3" type="passenger"/>
    <trip id="pas110" depart="1100.00" from="27951333#0" to="-327764057#2" type="passenger"/>
    <trip id="pas111" depart="1110.00" from="27467656" to="-458268603" type="passenger"/>
    <trip id="pas112" depart="1120.00" from="458268603" to="-229481708#0" type="passenger"/>
    <trip id="pas113" depart="1130.00" from="122735130" to="-4727809#11" type="passenger"/>
    <trip id="pas114" depart="1140.00" from="-10786728#1" to="386114790" type="passenger"/>
    <trip id="pas115" depart="1150.00" from="27490672#2" to="-442027004#0" type="passenger"/>
    <trip id="pas116" depart="1160.00" from="-221893215#2" to="4774370#1" type="passenger"/>
    <trip id="pas117" depart="1170.00" from="4770193" to="250338817#5" type="passenger"/>
    <trip id="pas118" depart="1180.00" from="-27571848#0" to="-27467655#1" type="passenger"/>
    <trip id="pas119" depart="1190.00" from="386114775#1" to="473691590#1" type="passenger"/>
    <trip id="pas120" depart="1200.00" from="386113076#0" to="4774404" type="passenger"/>
    <trip id="pas121" depart="1210.00" from="-550735550" to="27571855#1" type="passenger"/>
    <trip id="pas122" depart="1220.00" from="-27571856" to="490522132" type="passenger"/>
    <trip id="pas123" depart="1230.00" from="4727807#4" to="550712035" type="passenger"/>
    <trip id="pas124" depart="1240.00" from="-473691620#2" to="494424630" type="passenger"/>
    <trip id="pas125" depart="1250.00" from="386114789" to="473691606#1" type="passenger"/>
    <trip id="pas126" depart="1260.00" from="39368524#1" to="-466974166#0" type="passenger"/>
    <trip id="pas127" depart="1270.00" from="386114186#0" to="-248521917#0" type="passenger"/>
    <trip id="pas128" depart="1280.00" from="4727809#9" to="473684642#0" type="passenger"/>
    <trip id="pas129" depart="1290.00" from="-358457707#2" to="4559087" type="passenger"/>
    <trip id="pas130" depart="1300.00" from="157423552#0" to="-4774366" type="passenger"/>
    <trip id="pas131" depart="1310.00" from="-143331551#4" to="-28788382#3" type="passenger"/>
    <trip id="pas132" depart="1320.00" from="523057042" to="-4727809#9" type="passenger"/>
    <trip id="pas133" depart="1330.00" from="27558745" to="157422557#1" type="passenger"/>
    <trip id="pas134" depart="1340.00" from="549941138#0" to="249697090#0" type="passenger"/>
    <trip id="pas135" depart="1350.00" from="4902428" to="-252482715#5" type="passenger"/>
    <trip id="pas136" depart="1360.00" from="543344250#0" to="-27951322#1" type="passenger"/>
    <trip id="pas137" depart="1370.00" from="519339286#0" to="-466974156#0" type="passenger"/>
    <trip id="pas138" depart="1380.00" from="-249697138" to="161392064#1" type="passenger"/>
    <trip id="pas139" depart="1390.00" from="-506271618#2" to="27490672#1" type="passenger"/>
    <trip id="pas140" depart="1400.00" from="-386114191" to="344113927" type="passenger"/>
    <trip id="pas141" depart="1410.00" from="-10785858#5" to="4902450#4" type="passenger"/>
    <trip id="pas142" depart="1420.00" from="229479575#0" to="345332038" type="passenger"/>
    <trip id="pas143" depart="1430.00" from="312299088#2" to="28788359#0" type="passenger"/>
    <trip id="pas144" depart="1440.00" from="27571470#0" to="-4902423" type="passenger"/>
    <trip id="pas145" depart="1450.00" from="27951336" to="-4770191#9" type="passenger"/>
    <trip id="pas146" depart="1460.00" from="-47221488" to="157483942#2" type="passenger"/>
    <trip id="pas147" depart="1470.00" from="-27490680" to="157642274#1" type="passenger"/>
    <trip id="pas148" depart="1480.00" from="4770191#7" to="27571848#4" type="passenger"/>
    <trip id="pas149" depart="1490.00" from="-466974156#0" to="250338875" type="passenger"/>
    <trip id="pas150" depart="1500.00" from="-10785858#0" to="-473684642#1" type="passenger"/>
    <trip id="pas151" depart="1510.00" from="122735160#0" to="27558703" type="passenger"/>
    <trip id="pas152" depart="1520.00" from="122735194#1" to="-345332022" type="passenger"/>
    <trip id="pas153" depart="1530.00" from="157483949#0" to="4902378#0" type="passenger"/>
    <trip id="pas154" depart="1540.00" from="386114775#0" to="-27572173#0" type="passenger"/>
    <trip id="pas155" depart="1550.00" from="-221893275" to="245546867" type="passenger"/>
    <trip id="pas156" depart="1560.00" from="27467650#1" to="-4902436#0" type="passenger"/>
    <trip id="pas157" depart="1570.00" from="409581862#3" to="386114188#4" type="passenger"/>
    <trip id="pas158" depart="1580.00" from="27571488#3" to="-386114159#1" type="passenger"/>
    <trip id="pas159" depart="1590.00" from="-28885055#0" to="-143331551#2" type="passenger"/>
    <trip id="pas160" depart="1600.00" from="-386114176#1" to="221893275" type="passenger"/>
    <trip id="pas161" depart="1610.00" from="463947013#2" to="-168645107#3" type="passenger"/>
    <trip id="pas162" depart="1620.00" from="-8154722" to="27572165#1" type="passenger"/>
    <trip id="pas163" depart="1630.00" from="-28788382#5" to="324535454#2" type="passenger"/>
    <trip id="pas164" depart="1640.00" from="161389761#1" to="-386114791" type="passenger"/>
    <trip id="pas165" depart="1650.00" from="27570527#5" to="-122735156#0" type="passenger"/>
    <trip id="pas166" depart="1660.00" from="327764054#0" to="386114787" type="passenger"/>
    <trip id="pas167" depart="1670.00" from="-248521918" to="157642291" type="passenger"/>
    <trip id="pas168" depart="1680.00" from="157422557#1" to="426799412#3" type="passenger"/>
    <trip id="pas169" depart="1690.00" from="27571479#3" to="550873590" type="passenger"/>
    <trip id="pas170" depart="1700.00" from="248870340#0" to="518473678" type="passenger"/>
    <trip id="pas171" depart="1710.00" from="473691613" to="27571744" type="passenger"/>
    <trip id="pas172" depart="1720.00" from="27951335#2" to="245234795#4" type="passenger"/>
    <trip id="pas173" depart="1730.00" from="4328544" to="250338875" type="passenger"/>
    <trip id="pas174" depart="1740.00" from="475370302" to="386114169" type="passenger"/>
    <trip id="pas175" depart="1750.00" from="157483949#1" to="-425383184#0" type="passenger"/>
    <trip id="pas176" depart="1760.00" from="345328736" to="245560600#3" type="passenger"/>
    <trip id="pas177" depart="1770.00" from="27078594" to="-4727809#0" type="passenger"/>
    <trip id="pas178" depart="1780.00" from="-221893219#2" to="-473679816#1" type="passenger"/>
    <trip id="pas179" depart="1790.00" from="-386114159#2" to="320070573#1" type="passenger"/>
    <trip id="pas180" depart="1800.00" from="27951309#0" to="-157643736#5" type="passenger"/>
    <trip id="pas181" depart="1810.00" from="-550735550" to="249870999#1" type="passenger"/>
    <trip id="pas182" depart="1820.00" from="-88497949#0" to="-343764294" type="passenger"/>
    <trip id="pas183" depart="1830.00" from="10785858#3" to="4902396" type="passenger"/>
    <trip id="pas184" depart="1840.00" from="-4902451#2" to="-122735156#1" type="passenger"/>
    <trip id="pas185" depart="1850.00" from="466974169" to="519339286#2" type="passenger"/>
    <trip id="pas186" depart="1860.00" from="10785374" to="386114178" type="passenger"/>
    <trip id="pas187" depart="1870.00" from="229481767#1" to="27571479#3" type="passenger"/>
    <trip id="pas188" depart="1880.00" from="122735172" to="-157423551#0" type="passenger"/>
    <trip id="pas189" depart="1890.00" from="-548651990#1" to="-27572154#0" type="passenger"/>
    <trip id="pas190" depart="1900.00" from="157483940#3" to="-27467655#2" type="passenger"/>
    <trip id="pas191" depart="1910.00" from="27016563#0" to="-157422557#0" type="passenger"/>
    <trip id="pas192" depart="1920.00" from="-518474788" to="255915662#3" type="passenger"/>
    <trip id="pas193" depart="1930.00" from="-156251563" to="27951285#2" type="passenger"/>
    <trip id="pas194" depart="1940.00" from="-27570528#1" to="221888727" type="passenger"/>
    <trip id="pas195" depart="1950.00" from="-157642274#2" to="122735167" type="passenger"/>
    <trip id="pas196" depart="1960.00" from="343763223#1" to="122735167" type="passenger"/>
    <trip id="pas197" depart="1970.00" from="-386114189" to="-221893214#0" type="passenger"/>
    <trip id="pas198" depart="1980.00" from="96494363" to="-531846850" type="passenger"/>
    <trip id="pas199" depart="1990.00" from="27558788#0" to="386278944#1" type="passenger"/>
    <trip id="pas200" depart="2000.00" from="27558789#1" to="386114190" type="passenger"/>
    <trip id="pas201" depart="2010.00" from="496360757" to="-28885076#0" type="passenger"/>
    <trip id="pas202" depart="2020.00" from="-27490679#1" to="27952559#3" type="passenger"/>
    <trip id="pas203" depart="2030.00" from="245234799#4" to="-345332044" type="passenger"/>
    <trip id="pas204" depart="2040.00" from="27840841#3" to="386114779#2" type="passenger"/>
    <trip id="pas205" depart="2050.00" from="-27840838#0" to="27571486" type="passenger"/>
    <trip id="pas206" depart="2060.00" from="410069075#1" to="549815935" type="passenger"/>
    <trip id="pas207" depart="2070.00" from="-249697138" to="-143331551#6" type="passenger"/>
    <trip id="pas208" depart="2080.00" from="-4727807#4" to="28788377#1" type="passenger"/>
    <trip id="pas209" depart="2090.00" from="506329457#2" to="143426399#0" type="passenger"/>
    <trip id="pas210" depart="2100.00" from="27951329#0" to="-168645111#4" type="passenger"/>
    <trip id="pas211" depart="2110.00" from="-245234850#1" to="386114797" type="passenger"/>
    <trip id="pas212" depart="2120.00" from="-27218103#2" to="550757841" type="passenger"/>
    <trip id="pas213" depart="2130.00" from="386113079" to="-523057042" type="passenger"/>
    <trip id="pas214" depart="2140.00" from="162154108#0" to="-506271618#0" type="passenger"/>
    <trip id="pas215" depart="2150.00" from="-248521903#0" to="528715329" type="passenger"/>
    <trip id="pas216" depart="2160.00" from="27951309#3" to="161392064#5" type="passenger"/>
    <trip id="pas217" depart="2170.00" from="-386114787" to="443606339" type="passenger"/>
    <trip id="pas218" depart="2180.00" from="122735171" to="386114158" type="passenger"/>
    <trip id="pas219" depart="2190.00" from="-386114784" to="4734476#0" type="passenger"/>
    <trip id="pas220" depart="2200.00" from="4328546#0" to="-221893237" type="passenger"/>
    <trip id="pas221" depart="2210.00" from="473679813" to="-386114791" type="passenger"/>
    <trip id="pas222" depart="2220.00" from="157483505#1" to="27571495#0" type="passenger"/>
    <trip id="pas223" depart="2230.00" from="-4902450#4" to="-157423546#0" type="passenger"/>
    <trip id="pas224" depart="2240.00" from="466974156#0" to="-27951334#0" type="passenger"/>
    <trip id="pas225" depart="2250.00" from="-4770196#1" to="4774365#0" type="passenger"/>
    <trip id="pas226" depart="2260.00" from="27951279#2" to="-4727809#10" type="passenger"/>
    <trip id="pas227" depart="2270.00" from="-122735156#1" to="518473676" type="passenger"/>
    <trip id="pas228" depart="2280.00" from="-221893275" to="345332043#1" type="passenger"/>
    <trip id="pas229" depart="2290.00" from="157643732#1" to="386114192#4" type="passenger"/>
    <trip id="pas230" depart="2300.00" from="27572162#2" to="27951304#7" type="passenger"/>
    <trip id="pas231" depart="2310.00" from="157643735#0" to="409581860#1" type="passenger"/>
    <trip id="pas232" depart="2320.00" from="-229481708#2" to="-386113077#0" type="passenger"/>
    <trip id="pas233" depart="2330.00" from="27572165#2" to="-4774366" type="passenger"/>
    <trip id="pas234" depart="2340.00" from="221893225" to="157642291" type="passenger"/>
    <trip id="pas235" depart="2350.00" from="319453545#1" to="-4902426#1" type="passenger"/>
    <trip id="pas236" depart="2360.00" from="27951304#3" to="-466991750#0" type="passenger"/>
    <trip id="pas237" depart="2370.00" from="221893279" to="386114208" type="passenger"/>
    <trip id="pas238" depart="2380.00" from="-28788359#1" to="-345332043#0" type="passenger"/>
    <trip id="pas239" depart="2390.00" from="157643725#1" to="386113076#4" type="passenger"/>
    <trip id="pas240" depart="2400.00" from="549928648#3" to="247833371#1-AddedOnRampEdge" type="passenger"/>
    <trip id="pas241" depart="2410.00" from="-386579153" to="-245234796#0" type="passenger"/>
    <trip id="pas242" depart="2420.00" from="-28788382#4" to="-386114184#0" type="passenger"/>
    <trip id="pas243" depart="2430.00" from="221893257" to="-4727807#3" type="passenger"/>
    <trip id="pas244" depart="2440.00" from="549928642#1" to="252482715#6" type="passenger"/>
    <trip id="pas245" depart="2450.00" from="27840840#0" to="-27218104#3" type="passenger"/>
    <trip id="pas246" depart="2460.00" from="4727809#0" to="24184169#2" type="passenger"/>
    <trip id="pas247" depart="2470.00" from="4727811" to="27467656" type="passenger"/>
    <trip id="pas248" depart="2480.00" from="157483942#3" to="162154102#0" type="passenger"/>
    <trip id="pas249" depart="2490.00" from="-28788359#1" to="-157642260#0" type="passenger"/>
    <trip id="pas250" depart="2500.00" from="4902433#4" to="229479522" type="passenger"/>
    <trip id="pas251" depart="2510.00" from="422062691" to="157423546#1" type="passenger"/>
    <trip id="pas252" depart="2520.00" from="-221893210#1" to="27572165#0" type="passenger"/>
    <trip id="pas253" depart="2530.00" from="-157642291" to="-27571484#1" type="passenger"/>
    <trip id="pas254" depart="2540.00" from="245234799#0" to="-4770307#4" type="passenger"/>
    <trip id="pas255" depart="2550.00" from="8148885#1" to="-27016573#0" type="passenger"/>
    <trip id="pas256" depart="2560.00" from="183017632" to="168645103#2" type="passenger"/>
    <trip id="pas257" depart="2570.00" from="122735197" to="473691589" type="passenger"/>
    <trip id="pas258" depart="2580.00" from="550860118#2" to="-4774366" type="passenger"/>
    <trip id="pas259" depart="2590.00" from="27016563#0" to="27571492#1" type="passenger"/>
    <trip id="pas260" depart="2600.00" from="28885076#1" to="518473676" type="passenger"/>
    <trip id="pas261" depart="2610.00" from="-341224415#1" to="-345328742#2" type="passenger"/>
    <trip id="pas262" depart="2620.00" from="-27951311" to="-168645111#1" type="passenger"/>
    <trip id="pas263" depart="2630.00" from="-10786728#1" to="168645103#2" type="passenger"/>
    <trip id="pas264" depart="2640.00" from="248521923#1" to="-473691609" type="passenger"/>
    <trip id="pas265" depart="2650.00" from="-386114160#0" to="343763218" type="passenger"/>
    <trip id="pas266" depart="2660.00" from="27951304#4" to="168645109#0" type="passenger"/>
    <trip id="pas267" depart="2670.00" from="27572154#1" to="4902449" type="passenger"/>
    <trip id="pas268" depart="2680.00" from="386114188#0" to="27572158" type="passenger"/>
    <trip id="pas269" depart="2690.00" from="122735133" to="250338817#1" type="passenger"/>
    <trip id="pas270" depart="2700.00" from="27558781" to="4902415#2" type="passenger"/>
    <trip id="pas271" depart="2710.00" from="425383186" to="-168645105#0" type="passenger"/>
    <trip id="pas272" depart="2720.00" from="-27709338" to="-4774375#0" type="passenger"/>
    <trip id="pas273" depart="2730.00" from="320070573#6" to="27218102#1" type="passenger"/>
    <trip id="pas274" depart="2740.00" from="-409581860#0" to="-27218103#1" type="passenger"/>
    <trip id="pas275" depart="2750.00" from="27572155#1" to="327956372" type="passenger"/>
    <trip id="pas276" depart="2760.00" from="4902436#0" to="245234777" type="passenger"/>
    <trip id="pas277" depart="2770.00" from="161389758" to="-221888735" type="passenger"/>
    <trip id="pas278" depart="2780.00" from="-157483947#3" to="161389761#1" type="passenger"/>
    <trip id="pas279" depart="2790.00" from="-229479575#2" to="53172877#2" type="passenger"/>
    <trip id="pas280" depart="2800.00" from="443606341#2" to="27490670#0" type="passenger"/>
    <trip id="pas281" depart="2810.00" from="27571488#1" to="-466974177#1" type="passenger"/>
    <trip id="pas282" depart="2820.00" from="157483942#7" to="27951314" type="passenger"/>
    <trip id="pas283" depart="2830.00" from="4806339" to="-27951332#1" type="passenger"/>
    <trip id="pas284" depart="2840.00" from="248521865#0" to="27840836" type="passenger"/>
    <trip id="pas285" depart="2850.00" from="157643736#2" to="-229479573#3" type="passenger"/>
    <trip id="pas286" depart="2860.00" from="27571484#3" to="473679823" type="passenger"/>
    <trip id="pas287" depart="2870.00" from="-473691610" to="319453545#1" type="passenger"/>
    <trip id="pas288" depart="2880.00" from="402922224" to="252482711#3" type="passenger"/>
    <trip id="pas289" depart="2890.00" from="143426399#1" to="-487551846#1" type="passenger"/>
    <trip id="pas290" depart="2900.00" from="-473691589" to="549939606#6" type="passenger"/>
    <trip id="pas291" depart="2910.00" from="-548651990#1" to="245546856#1" type="passenger"/>
    <trip id="pas292" depart="2920.00" from="550753287#6" to="27951327#1" type="passenger"/>
    <trip id="pas293" depart="2930.00" from="229481726#0" to="157483950#2" type="passenger"/>
    <trip id="pas294" depart="2940.00" from="-28788366" to="10785858#1" type="passenger"/>
    <trip id="pas295" depart="2950.00" from="329013842" to="27572159" type="passenger"/>
    <trip id="pas296" depart="2960.00" from="24184169#2" to="4902451#2" type="passenger"/>
    <trip id="pas297" depart="2970.00" from="122735176#1" to="327764057#0" type="passenger"/>
    <trip id="pas298" depart="2980.00" from="250338867" to="-386114780" type="passenger"/>
    <trip id="pas299" depart="2990.00" from="244035493" to="-229481762#1" type="passenger"/>
    <trip id="pas300" depart="3000.00" from="551160579" to="4902426#3" type="passenger"/>
    <trip id="pas301" depart="3010.00" from="27951331" to="245234842" type="passenger"/>
    <trip id="pas302" depart="3020.00" from="-386114798" to="47221485#1" type="passenger"/>
    <trip id="pas303" depart="3030.00" from="549939609#6" to="-386114791" type="passenger"/>
    <trip id="pas304" depart="3040.00" from="244035440#0" to="122735182#2" type="passenger"/>
    <trip id="pas305" depart="3050.00" from="490134197#1" to="245234801#2" type="passenger"/>
    <trip id="pas306" depart="3060.00" from="4734487" to="473691606#1" type="passenger"/>
    <trip id="pas307" depart="3070.00" from="-386223027" to="401773368" type="passenger"/>
    <trip id="pas308" depart="3080.00" from="-8154722" to="501498997" type="passenger"/>
    <trip id="pas309" depart="3090.00" from="162154108#4" to="463947013#3" type="passenger"/>
    <trip id="pas310" depart="3100.00" from="-386579153" to="-4770191#1" type="passenger"/>
    <trip id="pas311" depart="3110.00" from="157643733#0" to="-27571483#2" type="passenger"/>
    <trip id="pas312" depart="3120.00" from="229479575#0" to="-518473679" type="passenger"/>
    <trip id="pas313" depart="3130.00" from="244035493" to="249870999#1" type="passenger"/>
    <trip id="pas314" depart="3140.00" from="157422557#0" to="-4902389#1" type="passenger"/>
    <trip id="pas315" depart="3150.00" from="245546852" to="-386114193" type="passenger"/>
    <trip id="pas316" depart="3160.00" from="401262992#0" to="122735192" type="passenger"/>
    <trip id="pas317" depart="3170.00" from="27571469#1" to="463947013#4" type="passenger"/>
    <trip id="pas318" depart="3180.00" from="549939609#8" to="244074953#1" type="passenger"/>
    <trip id="pas319" depart="3190.00" from="-157483942#2" to="245234785" type="passenger"/>
    <trip id="pas320" depart="3200.00" from="248521901" to="473691621" type="passenger"/>
    <trip id="pas321" depart="3210.00" from="4727898#1" to="162043157#1" type="passenger"/>
    <trip id="pas322" depart="3220.00" from="221888735" to="179109642#1" type="passenger"/>