<?xml version="1.0" encoding="UTF-8"?>

<!-- generated on Mon Jan  8 10:18:16 2018 by SUMO duarouter Version 0.30.0
<?xml version="1.0" encoding="UTF-8"?>

<configuration xmlns:xsi="http://www.w3.org/2001/XMLSchema-instance" xsi:noNamespaceSchemaLocation="http://sumo.dlr.de/xsd/duarouterConfiguration.xsd">

    <input>
        <net-file value="/media/jefferson/Dados/workspace/gtracker/vanet/sp/sp.net.xml"/>
        <trip-files value="/media/jefferson/Dados/workspace/gtracker/vanet/sp/sp.passenger.trips.xml"/>
    </input>

    <output>
        <output-file value="/media/jefferson/Dados/workspace/gtracker/vanet/sp/sp.passenger.rou.xml"/>
    </output>

    <processing>
        <ignore-errors value="true"/>
    </processing>

    <time>
        <begin value="0"/>
        <end value="3600.0"/>
    </time>

    <report>
        <no-warnings value="true"/>
        <no-step-log value="true"/>
    </report>

</configuration>
-->

<routes xmlns:xsi="http://www.w3.org/2001/XMLSchema-instance" xsi:noNamespaceSchemaLocation="http://sumo.dlr.de/xsd/routes_file.xsd">
    <vType id="passenger" vClass="passenger"/>
    <vehicle id="pas3" type="passenger" depart="9.00">
        <route edges="4902394#1 -4902394#1 -4902394#0 161392064#0 161392064#1 161392064#3 161392064#4 161392064#5 549345534 549815935 329013842 4559074#0 4559074#1 4559074#2 4559074#3 4559074#4 4559074#5 4559074#6 4559074#7 4559005#0 4559005#1 4559005#2 -550757841 -550741745 -550745968 -550732345 -550873590 4774365#0 4774365#1"/>
    </vehicle>
    <vehicle id="pas4" type="passenger" depart="12.00">
        <route edges="-549928646#1 161392062 4902416#2 161392064#3 161392064#4 161392064#5 319453543#0 319453543#1 319453543#2 161392073#0 161392072 319453543#4 319453543#5 319453543#6 161389765 161392059#0 550860119#2 -550865716 -4734472"/>
    </vehicle>
    <vehicle id="pas6" type="passenger" depart="18.00">
        <route edges="4902394#2 -4902394#2 -4902394#1 -4902394#0 161392064#0 161392064#1 161392064#3 161392064#4 161392064#5 549345534 549815935 329013842 4559074#0 4559074#1 4559074#2 4559074#3 4559074#4 4559074#5 4559074#6 4559074#7 4559005#0 4559005#1 4559005#2 -550757841 -550741745 -550745968 -550732345 4877453 143331549#0 4877455"/>
    </vehicle>
    <vehicle id="pas10" type="passenger" depart="30.00">
        <route edges="4902453 549928642#1 549928642#2 549928642#3 327764059#0 327764059#1 161392064#0 161392064#1 161392064#3 161392064#4 161392064#5 549345534 549815935 329013842"/>
    </vehicle>
    <vehicle id="pas13" type="passenger" depart="39.00">
        <route edges="-550867442#2 -550867442#1 -550867442#0 -229481708#2 -229481708#0 402922224 380438949#0 380438949#1 319447428#1 319447428#2 319447428#3 401773368 327956372 327956373#0 327956373#1 327956374 549928635 549928642#0 549928642#1 549928642#2 -4902441"/>
    </vehicle>
    <vehicle id="pas14" type="passenger" depart="42.00">
        <route edges="-386278913 -4902394#5 -4902394#4 -4902394#3 -4902394#2 -4902394#1 -4902394#0 161392064#0 161392064#1 161392064#3 161392064#4 161392064#5 549345534 549815935 329013842 4559074#0 4559074#1 4559074#2 4559074#3 4559074#4 4559074#5 4559074#6 4559074#7 4559005#0 4559005#1 4559005#2 -550757841 -550741745 -550745968 -550732345 4877453 143331549#0 4877455"/>
    </vehicle>
    <vehicle id="pas15" type="passenger" depart="45.00">
        <route edges="96097829#0 96097829#1 96097829#2 4523238 327754983 247833369#0 247833369#1 319447428#0 319447428#1 319447428#2 319447428#3 8148885#0 8148885#1 4559074#0 4559074#1 4559074#2 4559074#3 4559074#4 4559074#5 4559074#6 4559074#7 4559005#0"/>
    </vehicle>
    <vehicle id="pas17" type="passenger" depart="51.00">
        <route edges="-4774365#1 -4774365#0 550873590 550732345 550745968 550741745 550757841 550725735#0 4559084 550753287#0 550753287#1 550753287#2"/>
    </vehicle>
    <vehicle id="pas18" type="passenger" depart="54.00">
        <route edges="518473679 -518473675 4559074#4 4559074#5 4559074#6 4559007 4902378#0 4902378#1 549917967 319453543#0 319453543#1 319453543#2 161392073#0 161392072 319453543#4 319453543#5 319453543#6 319453544 161392067 161392068"/>
    </vehicle>
    <vehicle id="pas19" type="passenger" depart="57.00">
        <route edges="344144147#0 473684641#0 473684641#1 550712035 -550712033 -550867442#1 -550867442#0 -229481708#2 -229481708#0 402922224 380438949#0 380438949#1 319447428#1 319447428#2 319447428#3 401773368 327956372 327956373#0 327956373#1 4902374#0 4902374#1 4902374#2 4902374#3 -4902433 245553663#4"/>
    </vehicle>
    <vehicle id="pas21" type="passenger" depart="63.00">
        <route edges="96097829#2 4523238 327754983 247833369#0 247833369#1 319447428#0 319447428#1 319447428#2 319447428#3 8148885#0 8148885#1 4559074#0 4559074#1 4559074#2 4559074#3 4559074#4 4559074#5 4559074#6 4559007 4902378#0 4902378#1 549917967 319453543#0 27490680 -28788368#1 -28788368#0 -28788371#0 28788370#1"/>
    </vehicle>
    <vehicle id="pas23" type="passenger" depart="69.00">
        <route edges="96097829#1 96097829#2 4523238 327754983 247833369#0 247833369#1 319447428#0 319447428#1 319447428#2 319447428#3 401773368 327956372 327956373#0 327956373#1 327956374 161392064#3 161392064#4 27840836 -27840840#2 -179109642#2 -179109642#1 -179109642#0 28885055#1"/>
    </vehicle>
    <vehicle id="pas24" type="passenger" depart="72.00">
        <route edges="28885070#1 -340955662 -27803780#2 -28788366 -27840836 161392064#5 549345534 549815935 329013842 4559074#0 4559074#1 4559074#2 4559074#3 4559074#4 4559074#5 4559074#6 4559074#7 4559005#0 4559005#1 4559005#2 -550757841 -550741745 -550745968 -550732345 -550873590 -462566123"/>
    </vehicle>
    <vehicle id="pas26" type="passenger" depart="78.00">
        <route edges="518473680 4559074#3 4559074#4 4559074#5 4559074#6 4559074#7 4559087 4559118 550753286 550753287#0 550753287#1 550753287#2 550753287#3 550753287#4 550753287#5"/>
    </vehicle>
    <vehicle id="pas27" type="passenger" depart="81.00">
        <route edges="473684642#1 -473684642#1 -473684642#0 327754983 247833369#0 247833369#1 319447428#0 319447428#1 319447428#2 319447428#3 401773368 327956372 327956373#0 327956373#1 327956374 161392064#3 161392064#4 27840836 28788366 -341224416"/>
    </vehicle>
    <vehicle id="pas28" type="passenger" depart="84.00">
        <route edges="161392075#1 161392075#2 245234799#6 245234799#0 549915319 327956372 327956373#0 327956373#1 327956374 549928635 549928642#0 549928642#1 549928642#2 -4902441"/>
    </vehicle>
    <vehicle id="pas29" type="passenger" depart="87.00">
        <route edges="27570527#2 27570527#3 27570527#4 -340955662 -27803780#2 -28788366 -27840836 161392064#5 549345534 549815935 329013842 4559074#0 4559074#1 4559074#2 4559074#3 4559074#4 4559074#5 4559074#6 4559074#7 4559005#0 4559005#1 4559005#2 -550757841 -550741745 -550745968 -550732345 4877453 143331549#0 4877455"/>
    </vehicle>
    <vehicle id="pas30" type="passenger" depart="90.00">
        <route edges="96097829#0 96097829#1 96097829#2 4523238 327754983 247833369#0 247833369#1 319447428#0 319447428#1 319447428#2 319447428#3 8148885#0 8148885#1 4559074#0 4559074#1 4559074#2 4559074#3"/>
    </vehicle>
    <vehicle id="pas37" type="passenger" depart="111.00">
        <route edges="229481708#2 -229481708#2 -229481708#0 402922224 380438949#0 380438949#1 319447428#1 319447428#2 319447428#3 401773368 327956372 327956373#0 327956373#1 4902374#0 4902374#1 4902374#2 4902374#3 -4902433 4902433"/>
    </vehicle>
    <vehicle id="pas38" type="passenger" depart="114.00">
        <route edges="-27840841#1 -27840841#0 -27803780#2 -27803780#1 179109642#1 28788370#0 28788371#0 28788368#0 28788368#1 -27490680 319453543#1 319453543#2 161392073#0 161392072 319453543#4 319453543#5 319453543#6 161389765 247833371#0 247833371#1-AddedOnRampEdge 247833371#1 161389762-AddedOnRampEdge 161389762 249870999"/>
    </vehicle>
    <vehicle id="pas42" type="passenger" depart="126.00">
        <route edges="-4902394#5 -4902394#4 -4902394#3 -4902394#2 -4902394#1 -4902394#0 161392064#0 161392064#1 161392064#3 161392064#4 161392064#5 549345534 549815935 329013842 4559074#0 4559074#1 4559074#2 4559074#3 4559074#4 4559074#5 4559074#6 4559074#7 4559005#0 4559005#1 4559005#2 -550757841 -550741745 -550745968 -550732345 -550873590 4774365#0 -4774365#0 550873590 550732345"/>
    </vehicle>
    <vehicle id="pas44" type="passenger" depart="132.00">
        <route edges="245546867 229481708#0 -229481708#0 402922224 380438949#0 380438949#1 319447428#1 319447428#2 319447428#3 401773368 327956372 327956373#0 327956373#1 4902374#0 4902374#1 -8154723 4902447 4902444 -4902444"/>
    </vehicle>
    <vehicle id="pas46" type="passenger" depart="138.00">
        <route edges="-341224416 179109642#0 179109642#1 28788370#0 28788371#0 28788368#0 28788368#1 -27490680 319453543#1 319453543#2 161392073#0 161392072 319453543#4 319453543#5 319453543#6 161389765 247833371#0 247833371#1-AddedOnRampEdge 247833371#1 161389762-AddedOnRampEdge"/>
    </vehicle>
    <vehicle id="pas50" type="passenger" depart="150.00">
        <route edges="4902414#1 4902414#2 4902414#3 161389761#1 245553663#8 245553663#9 418990606 4902378#0 4902378#1 549917967 319453543#0 319453543#1 319453543#2 161392073#0 161392072 319453543#4 319453543#5 319453543#6 161389765"/>
    </vehicle>
    <vehicle id="pas51" type="passenger" depart="153.00">
        <route edges="380438949#0 380438949#1 319447428#1 319447428#2 319447428#3 8148885#0 8148885#1 4559074#0 4559074#1 4559074#2 4559074#3 4559074#4 4559074#5 4559074#6 4559074#7 4559087 4559118 550753286 550753287#0"/>
    </vehicle>
    <vehicle id="pas53" type="passenger" depart="159.00">
        <route edges="327754983 247833369#0 247833369#1 319447428#0 319447428#1 319447428#2 319447428#3 401773368 327956372 327956373#0 327956373#1 4902374#0 4902374#1 4902374#2 4902374#3 4902436#0 4902436#1 -4902428 8154721#1 -8154721#1"/>
    </vehicle>
    <vehicle id="pas55" type="passenger" depart="165.00">
        <route edges="161392075#1 161392075#2 245234799#6 161392080 329013842 4559074#0 4559074#1 4559074#2 4559074#3 4559074#4 4559074#5 4559074#6 4559074#7 4559005#0 4559005#1 4559005#2 -550757841 -550741745 -550745968 -550732345 4877453 143331549#0 143331549#1 143331549#2"/>
    </vehicle>
    <vehicle id="pas59" type="passenger" depart="177.00">
        <route edges="549915319 327956372 327956373#0 327956373#1 327956374 549928635 549928642#0 549928642#1 549928642#2 -4902441"/>
    </vehicle>
    <vehicle id="pas66" type="passenger" depart="198.00">
        <route edges="-4902394#7 -4902394#5 -4902394#4 -4902394#3 -4902394#2 -4902394#1 -4902394#0 161392064#0 161392064#1 161392064#3 161392064#4 161392064#5 549345534 549815935 329013842 4559074#0 4559074#1 4559074#2 4559074#3 4559074#4 4559074#5 4559074#6 4559074#7 4559005#0 4559005#1 4559005#2 -550757841 -550741745 -550745968 -550732345 -550873590 4774365#0 4774404"/>
    </vehicle>
    <vehicle id="pas67" type="passenger" depart="201.00">
        <route edges="27570527#1 -4902394#2 -4902394#1 -4902394#0 161392064#0 161392064#1 161392064#3 161392064#4 161392064#5 549345534 549815935 329013842 4559074#0 4559074#1 4559074#2 4559074#3 4559074#4 4559074#5 4559074#6 4559074#7 4559005#0 4559005#1 4559005#2 -550757841 -550741745 -550745968 -550732345 4877453 4877450"/>
    </vehicle>
    <vehicle id="pas68" type="passenger" depart="204.00">
        <route edges="-550867442#1 -550867442#0 -229481708#2 -229481708#0 402922224 380438949#0 380438949#1 319447428#1 319447428#2 319447428#3 401773368 327956372 327956373#0 327956373#1 327956374 161392064#3 161392064#4 27840836 -27840836"/>
    </vehicle>
    <vehicle id="pas69" type="passenger" depart="207.00">
        <route edges="161392064#0 161392064#1 161392064#3 161392064#4 161392064#5 319453543#0 319453543#1 319453543#2 161392073#0 161392072 319453543#4 319453543#5 319453543#6 161389765 247833371#0 247833371#1-AddedOnRampEdge 247833371#1 161389762-AddedOnRampEdge"/>
    </vehicle>
    <vehicle id="pas71" type="passenger" depart="213.00">
        <route edges="344144147#0 473684641#0 473684641#1 550712035 -550712033 -550867442#1 -550867442#0 -229481708#2 -229481708#0 402922224 380438949#0 380438949#1 319447428#1 319447428#2 319447428#3 8148885#0 8148885#1 4559074#0 4559074#1 4559074#2 4559074#3 4559074#4 4559074#5 4559074#6 4559007 4902378#0 4902378#1 549917967 319453543#0 27490680 27840838#0"/>
    </vehicle>
    <vehicle id="pas72" type="passenger" depart="216.00">
        <route edges="39368522#0 39368522#1 39368522#2 -518474575 -473691590#0 39368524#2 380438949#1 319447428#1 319447428#2 319447428#3 401773368 327956372 327956373#0 327956373#1 327956374 549928635 549928642#0 -4902453"/>
    </vehicle>
    <vehicle id="pas73" type="passenger" depart="219.00">
        <route edges="4902441 549928642#3 549928648#0 4902394#2 27570527#2 27570527#3 27570527#4 -340955662 -27803780#2 -27803780#1 -27803780#0 -27840838#2 -27840838#1"/>
    </vehicle>
    <vehicle id="pas74" type="passenger" depart="222.00">
        <route edges="245553663#1 245553663#2 245553663#3 4902433 -549928646#1"/>
    </vehicle>
    <vehicle id="pas75" type="passenger" depart="225.00">
        <route edges="4734475#2 4734475#3 4734475#4 323823408 249871000 247833367 161392066 319447428#0 319447428#1 319447428#2 319447428#3 401773368 327956372 327956373#0 327956373#1 4902374#0 4902374#1 4902374#2 4902374#3 4902416#0"/>
    </vehicle>
    <vehicle id="pas76" type="passenger" depart="228.00">
        <route edges="-28788365#0 327764059#1 161392064#0 161392064#1 161392064#3 161392064#4 161392064#5 319453543#0 319453543#1 319453543#2 161392073#0 161392072 319453543#4 319453543#5 319453543#6 161389765 161392059#0 550860118#0 550860118#1 550860118#2 550860118#3 249697090#0 249697090#1 249697090#2"/>
    </vehicle>
    <vehicle id="pas77" type="passenger" depart="231.00">
        <route edges="-386278913 -4902394#5 -4902394#4 -4902394#3 27570527#2 27570527#3 27570527#4 -340955662 -27803780#2 -27803780#1 179109642#1 28788370#0 28788371#0 28788368#0 28788368#1 -27490680 319453543#1 319453543#2 161392073#0 161392072 319453543#4 319453543#5 319453543#6 161389765 161392059#0 550860118#0"/>
    </vehicle>
    <vehicle id="pas78" type="passenger" depart="234.00">
        <route edges="-4902394#5 -4902394#4 -4902394#3 -4902394#2 -4902394#1 -4902394#0 161392064#0 161392064#1 161392064#3 161392064#4 161392064#5 549345534 549815935 329013842 4559074#0 4559074#1 4559074#2 4559074#3 4559074#4 518473679 518473678"/>
    </vehicle>
    <vehicle id="pas79" type="passenger" depart="237.00">
        <route edges="39368522#0 39368522#1 39368522#2 39368522#4 39368522#5 229481708#2 550867442#0 550867442#1 550712033 550712036#0 550712034 4806304#2 327754983 4734476#0 4734476#1 319453545#0 161389756#0 161389756#1 247833368 247833371#1-AddedOnRampEdge 247833371#1 161389762-AddedOnRampEdge 161389762 86936182"/>
    </vehicle>
    <vehicle id="pas80" type="passenger" depart="240.00">
        <route edges="28885040#2 -27570527#2 -4902394#2 -4902394#1 -4902394#0 28788362 549928646#0 161392062 4902374#3 4902436#0 4902436#1 -4902428 8154721#1 8154721#2 8154721#3 4902414#1 4902414#2 4902414#3 161389761#1 161389761#2 550753287#2 550753287#3 550753287#4 550753287#5"/>
    </vehicle>
    <vehicle id="pas81" type="passenger" depart="243.00">
        <route edges="4902421 4902418#3 4902418#4 -4902451#1 -4902436#0 4902416#0 4902416#2 161392064#3 161392064#4 161392064#5 319453543#0 319453543#1 319453543#2 161392073#0 161392072 319453543#4 319453543#5 319453543#6"/>
    </vehicle>
    <vehicle id="pas83" type="passenger" depart="249.00">
        <route edges="473684642#0 -473684642#0 327754983 247833369#0 247833369#1 319447428#0 319447428#1 319447428#2 319447428#3 401773368 327956372 327956373#0 327956373#1 327956374 27570528#0 27570528#1 27570528#2 -27570527#3 28885040#3 28885040#4"/>
    </vehicle>
    <vehicle id="pas85" type="passenger" depart="255.00">
        <route edges="-4902418#4 4902418#4 -4902451#1 -4902436#0 4902416#0 4902416#2 161392064#3 161392064#4 161392064#5 319453543#0 319453543#1 319453543#2 161392073#0 161392072 319453543#4 319453543#5 319453543#6 319453544 161392067 161392068"/>
    </vehicle>
    <vehicle id="pas88" type="passenger" depart="264.00">
        <route edges="161392070 247833370#0 -473684642#1 -473684642#0 327754983 247833369#0 247833369#1 319447428#0 319447428#1 319447428#2 319447428#3 401773368 327956372 327956373#0 327956373#1 327956374 549928635 549928642#0 549928642#1 549928642#2 -4902441"/>
    </vehicle>
    <vehicle id="pas90" type="passenger" depart="270.00">
        <route edges="-550735550 550735549 -550741745 -550745968 -550732345 -550873590 4774365#0 -4774365#0 550873590 550732345 550745968 550741745 550757841 550725735#0 550756710#0 550756710#1 550747490 4902378#0 4902474 327956373#1 327956374 27570528#0 -28788365#2 -28788365#1 4902394#1 4902394#2 4902394#3 4902394#4"/>
    </vehicle>
    <vehicle id="pas91" type="passenger" depart="273.00">
        <route edges="-4774404 -4774365#0 550873590 550732345 550745968 550741745 550757841 550725735#0 550756710#0 550756710#1 550747490 4902378#0 4902474 327956373#1 327956374 549928635 549928642#0 -4902453"/>
    </vehicle>
    <vehicle id="pas95" type="passenger" depart="285.00">
        <route edges="-4774365#1 -4774365#0 550873590 550732345 550745968 550741745 550757841 550725735#0 550756710#0 550756710#1 550747490 4902378#0 4902378#1 549917967 161392074"/>
    </vehicle>
    <vehicle id="pas97" type="passenger" depart="291.00">
        <route edges="550749977 4559084 418990606 4902378#0 4902474 327956373#1 327956374 549928635 549928642#0 549928642#1 -4902426"/>
    </vehicle>
    <vehicle id="pas99" type="passenger" depart="297.00">
        <route edges="4523238 327754983 247833369#0 247833369#1 319447428#0 319447428#1 319447428#2 319447428#3 401773368 327956372 327956373#0 327956373#1 4902374#0 4902374#1 4902374#2 4902374#3 4902436#0 4902436#1 -4902428 8154721#1 8154721#2 8154721#3 4902414#1"/>
    </vehicle>
    <vehicle id="pas101" type="passenger" depart="303.00">
        <route edges="4902414#3 161389761#1 245553663#8 245553663#9 418990606 4902378#0 4902378#1 549917967 319453543#0 319453543#1 319453543#2 161392073#0 161392072 319453543#4 319453543#5 319453543#6 161389765 161392059#0 550860119#2"/>
    </vehicle>
    <vehicle id="pas103" type="passenger" depart="309.00">
        <route edges="4902441 549928642#3 327764059#0 327764059#1 161392064#0 161392064#1 161392064#3 161392064#4 161392064#5 319453543#0 319453543#1 319453543#2 161392073#0 161392072 319453543#4 319453543#5 319453543#6 161389765 161392059#0 550860118#0 550860118#1 386278897"/>
    </vehicle>
    <vehicle id="pas105" type="passenger" depart="315.00">
        <route edges="4902441 549928642#3 327764059#0 327764059#1 161392064#0 161392064#1 161392064#3 161392064#4 161392064#5 549345534 549815935 329013842 4559074#0 4559074#1 4559074#2 4559074#3 4559074#4 4559074#5 4559074#6 4559074#7 4559005#0 4559005#1 4559005#2 -550757841 -550741745 518473672 518473674 -518473674 518473673"/>
    </vehicle>
    <vehicle id="pas106" type="passenger" depart="318.00">
        <route edges="-28788362 161392064#0 161392064#1 161392064#3 161392064#4 161392064#5 319453543#0 319453543#1 319453543#2 161392073#0 161392072 319453543#4 319453543#5 319453543#6 161389765 161392059#0 550860118#0 550860118#1 550860118#2"/>
    </vehicle>
    <vehicle id="pas107" type="passenger" depart="321.00">
        <route edges="462566123 550873590 550732345 550745968 550741745 550757841 550725735#0 550756710#0 550756710#1 550747490 4902378#0 4902378#1 549917967 319453543#0 319453543#1 319453543#2 161392073#0 161392072 319453543#4 319453543#5 319453543#6 161389765 161392059#0 550860119#2"/>
    </vehicle>
    <vehicle id="pas108" type="passenger" depart="324.00">
        <route edges="-4774365#1 -4774365#0 550873590 550732345 550745968 550741745 550757841 550725735#0 550756710#0 550756710#1 550747490 4902378#0 4902474 327956373#1 4902374#0 4902374#1 -8154723 4902451#0"/>
    </vehicle>
    <vehicle id="pas110" type="passenger" depart="330.00">
        <route edges="245553663#0 245553663#1 245553663#2 4902426 549928642#2 549928642#3 549928648#0 4902394#2 4902394#3 4902394#4 4902394#5 4902394#7"/>
    </vehicle>
    <vehicle id="pas111" type="passenger" depart="333.00">
        <route edges="245553663#0 245553663#1 245553663#2 245553663#3 4902433 4902436#0 -4902451#0 4902447 4902377#2 4902440#1 4902440#2 4902440#3"/>
    </vehicle>
    <vehicle id="pas112" type="passenger" depart="336.00">
        <route edges="-27840841#1 -27840841#0 340955662 -27570527#4 -27570527#3 -27570527#2 -4902394#2 -4902394#1 -4902394#0 28788362 549928642#0 -4902453"/>
    </vehicle>
    <vehicle id="pas114" type="passenger" depart="342.00">
        <route edges="-473684642#0 327754983 247833369#0 247833369#1 319447428#0 319447428#1 319447428#2 319447428#3 401773368 327956372 327956373#0 327956373#1 327956374 27570528#0 27570528#1 549928648#3 -28885070#1"/>
    </vehicle>
    <vehicle id="pas115" type="passenger" depart="345.00">
        <route edges="245546865 380438949#0 380438949#1 319447428#1 319447428#2 319447428#3 8148885#0 8148885#1 4559074#0 4559074#1 4559074#2 4559074#3 4559074#4 4559074#5 4559074#6 4559074#7 4559005#0 4559005#1 4559005#2 -550757841 -550741745 -550745968 -550732345 4877453 143331549#0 4877455"/>
    </vehicle>
    <vehicle id="pas116" type="passenger" depart="348.00">
        <route edges="550873590 550732345 550745968 550741745 550757841 550725735#0 550756710#0 550756710#1 550747490 4902378#0 4902474 327956373#1 327956374 27570528#0 -28788365#2 -28788365#1 4902394#1 4902394#2 4902394#3 4902394#4 327764057#1 28885040#5"/>
    </vehicle>
    <vehicle id="pas119" type="passenger" depart="357.00">
        <route edges="-27570527#4 27570527#4 -340955662 -27803780#2 -28788366 -27840836 161392064#5 549345534 549815935 329013842 4559074#0 4559074#1 4559074#2 4559074#3 4559074#4 4559074#5 4559074#6 4559074#7 4559005#0 4559005#1 4559005#2 -550757841 -550741745 -550745968 -550732345 -550873590 -462566123"/>
    </vehicle>
    <vehicle id="pas120" type="passenger" depart="360.00">
        <route edges="96097829#0 96097829#1 96097829#2 4523238 327754983 247833369#0 247833369#1 319447428#0 319447428#1 319447428#2 319447428#3 401773368 327956372 327956373#0 327956373#1 327956374 27570528#0 27570528#1 549928648#3 -28885070#1 -28885070#0"/>
    </vehicle>
    <vehicle id="pas121" type="passenger" depart="363.00">
        <route edges="473684642#0 -473684642#0 327754983 247833369#0 247833369#1 319447428#0 319447428#1 319447428#2 319447428#3 401773368 327956372 327956373#0 327956373#1 327956374 27570528#0 -28788365#2 -28788365#1 4902394#1 4902394#2 4902394#3 4902394#4 4902394#5 386278913"/>
    </vehicle>
    <vehicle id="pas123" type="passenger" depart="369.00">
        <route edges="96097829#0 96097829#1 96097829#2 4523238 327754983 247833369#0 247833369#1 319447428#0 319447428#1 319447428#2 319447428#3 401773368 327956372 327956373#0 327956373#1 327956374 27570528#0 -28788365#2 -28885040#0 161392064#1"/>
    </vehicle>
    <vehicle id="pas125" type="passenger" depart="375.00">
        <route edges="-4774365#1 -4774365#0 550873590 550732345 550745968 550741745 550757841 550725735#0 550756710#0 550756710#1 550747490 4902378#0 4902474 327956373#1 327956374 549928635 549928642#0 549928642#1 549928642#2 -4902441"/>
    </vehicle>
    <vehicle id="pas127" type="passenger" depart="381.00">
        <route edges="344144147#0 473684641#0 473684641#1 550712035 -550712033 -550867442#1 -550867442#0 -229481708#2 -229481708#0 402922224 380438949#0 380438949#1 319447428#1 319447428#2 319447428#3 8148885#0 8148885#1 4559074#0 4559074#1 4559074#2 4559074#3 4559074#4 4559074#5 4559074#6 4559074#7 4559005#0 4559005#1 4559005#2 -550757841 -550741745 -550745968 -550732345 -550873590 4774365#0 -4774365#0 550873590 550732345 550745968"/>
    </vehicle>
    <vehicle id="pas129" type="passenger" depart="387.00">
        <route edges="4734475#1 4734475#2 4734475#3 4734475#4 323823408 249871000 247833367 161392066 319447428#0 319447428#1 319447428#2 319447428#3 401773368 327956372 327956373#0 327956373#1 327956374 549928635 549928642#0 549928642#1 549928642#2 549928642#3 327764059#0"/>
    </vehicle>
    <vehicle id="pas130" type="passenger" depart="390.00">
        <route edges="402922224 380438949#0 380438949#1 319447428#1 319447428#2 319447428#3 8148885#0 8148885#1 4559074#0 4559074#1 4559074#2 4559074#3 4559074#4 4559074#5 4559074#6 4559074#7 4559005#0 4559005#1 4559005#2 -550757841 -550741745 -550745968 -550732345 -550873590 4774365#0 4774365#1"/>
    </vehicle>
    <vehicle id="pas131" type="passenger" depart="393.00">
        <route edges="245553663#1 245553663#2 245553663#3 4902433 4902416#0 4902416#2 161392064#3 161392064#4 27840836 27840840#3 -27840840#3"/>
    </vehicle>
    <vehicle id="pas132" type="passenger" depart="396.00">
        <route edges="-221893225 221893285#1 511815820 -221893217#1 -221893217#0 4734472 550865716 161389764 550860118#1 550860118#2 161389758 161389756#1 247833368 247833371#1-AddedOnRampEdge 247833371#1 161389762-AddedOnRampEdge 161389762 249870999"/>
    </vehicle>
    <vehicle id="pas135" type="passenger" depart="405.00">
        <route edges="245553663#0 245553663#1 245553663#2 4902426 549928642#2 549928642#3 327764059#0 28788365#0 28788365#1 28788365#2 -28788365#2"/>
    </vehicle>
    <vehicle id="pas136" type="passenger" depart="408.00">
        <route edges="-4902451#2 -4902418#4 4902431 -4902428 8154721#1 8154721#2 8154721#3 4902414#1 4902414#2 4902414#3 161389761#1 161389761#2 550753287#2 550753287#3 550753287#4"/>
    </vehicle>
    <vehicle id="pas139" type="passenger" depart="417.00">
        <route edges="27570527#4 -340955662 -27803780#2 -27803780#1 179109642#1 28788370#0 28788371#0 28788368#0 28788368#1 -27490680 319453543#1 319453543#2 161392073#0 161392072 319453543#4 319453543#5 319453543#6 161389765 247833371#0"/>
    </vehicle>
    <vehicle id="pas143" type="passenger" depart="429.00">
        <route edges="549939609#0 549939609#1 549939609#2 27570526#0 27570527#0 27570527#1 27570527#2 27570527#3 27570527#4 -340955662 -27803780#2 -27803780#1 179109642#1 28788370#0"/>
    </vehicle>
    <vehicle id="pas144" type="passenger" depart="432.00">
        <route edges="-4902451#0 4902451#0 -4902436#0 4902416#0 4902416#2 161392064#3 161392064#4 161392064#5 319453543#0 319453543#1 319453543#2 161392073#0 161392072 319453543#4 319453543#5 319453543#6 161389765"/>
    </vehicle>
    <vehicle id="pas145" type="passenger" depart="435.00">
        <route edges="245553663#0 245553663#1 245553663#2 245553663#3 245553663#4 245553663#5 245553663#6 245553663#7 245553663#8 245553663#9 550749977 4559005#1 4559005#2 -550757841 -550741745 -550745968 -550732345 -550873590 -462566123"/>
    </vehicle>
    <vehicle id="pas147" type="passenger" depart="441.00">
        <route edges="-39368524#2 39368524#2 380438949#1 319447428#1 319447428#2 319447428#3 8148885#0 8148885#1 4559074#0 4559074#1 4559074#2 4559074#3 4559074#4 4559074#5 4559074#6 4559074#7 4559005#0 4559005#1 4559005#2 -550757841 -550741745 -550745968 -550732345 -550873590 4774365#0 4774365#1"/>
    </vehicle>
    <vehicle id="pas148" type="passenger" depart="444.00">
        <route edges="4734475#0 4734475#1 4734475#2 4734475#3 4734475#4 323823408 249871000 247833367 161392066 319447428#0 319447428#1 319447428#2 319447428#3 8148885#0 8148885#1 4559074#0 4559074#1 4559074#2 4559074#3 4559074#4 4559074#5 4559074#6 4559074#7 4559005#0 4559005#1 4559005#2 -550757841 -550741745 -550745968 -550732345 -550873590 4774365#0 4774404"/>
    </vehicle>
    <vehicle id="pas149" type="passenger" depart="447.00">
        <route edges="344144147#0 473684641#0 473684641#1 550712035 -550712033 -550867442#1 -550867442#0 -229481708#2 -229481708#0 402922224 380438949#0 380438949#1 319447428#1 319447428#2 319447428#3 8148885#0 8148885#1 4559074#0 4559074#1 4559074#2 4559074#3 4559074#4 4559074#5 4559074#6 4559074#7 4559005#0 4559005#1 4559005#2 -550757841 -550741745 -550745968 -550732345 -550873590 -462566123"/>
    </vehicle>
    <vehicle id="pas156" type="passenger" depart="468.00">
        <route edges="-4902394#7 -4902394#5 -4902394#4 -4902394#3 -4902394#2 -4902394#1 -4902394#0 161392064#0 161392064#1 161392064#3 161392064#4 161392064#5 549345534 549815935 329013842 4559074#0 4559074#1 4559074#2 4559074#3 4559074#4 4559074#5 4559074#6 4559074#7 4559005#0 4559005#1 4559005#2 -550757841"/>
    </vehicle>
    <vehicle id="pas157" type="passenger" depart="471.00">
        <route edges="327764057#1 -28885040#4 -28885040#3 27570527#3 27570527#4 -340955662 -27803780#2 -27803780#1 179109642#1 28788370#0 28788371#0 28788368#0 28788368#1 -27490680 319453543#1 319453543#2 161392073#0 161392072 319453543#4 319453543#5 319453543#6 161389765 161392059#0 550860118#0 550860118#1 550860118#2 550860118#3 249697090#0 249697090#1 249697090#2"/>
    </vehicle>
    <vehicle id="pas158" type="passenger" depart="474.00">
        <route edges="-4902394#5 -4902394#4 -4902394#3 -4902394#2 -4902394#1 -4902394#0 161392064#0 161392064#1 161392064#3 161392064#4 161392064#5 549345534 549815935 329013842 4559074#0 4559074#1 4559074#2 4559074#3 4559074#4 518473679 518473678"/>
    </vehicle>
    <vehicle id="pas159" type="passenger" depart="477.00">
        <route edges="96097829#0 96097829#1 96097829#2 4523238 327754983 4734476#0 4734476#1 319453545#0 161389756#0 161389756#1 247833368 247833371#1-AddedOnRampEdge 247833371#1 161389762-AddedOnRampEdge 161389762"/>
    </vehicle>
    <vehicle id="pas160" type="passenger" depart="480.00">
        <route edges="39368524#2 380438949#1 319447428#1 319447428#2 319447428#3 401773368 327956372 327956373#0 327956373#1 4902374#0 4902374#1 4902374#2 4902374#3 4902436#0 4902436#1 -4902428 8154721#1 8154721#2 8154721#3 4902373 4902391"/>
    </vehicle>