<?xml version="1.0"?>
<!-- generated on 2018-01-04 15:02:29.829017 by $Id: randomTrips.py 23999 2017-04-21 09:04:47Z behrisch $
  options: <doubleminus>seed 42 <doubleminus>min-distance 1000 <doubleminus>fringe-factor 5 <doubleminus>prefix pas <doubleminus>vehicle-class passenger -n /media/jefferson/Dados/workspace/GoodsTracker/vanet/sp/sp.net.xml -r /media/jefferson/Dados/workspace/GoodsTracker/vanet/sp/sp.passenger.rou.xml -p 3 -e 3600 -o /media/jefferson/Dados/workspace/GoodsTracker/vanet/sp/sp.passenger.trips.xml
-->
<routes xmlns:xsi="http://www.w3.org/2001/XMLSchema-instance" xsi:noNamespaceSchemaLocation="http://sumo.dlr.de/xsd/routes_file.xsd">
    <vType id="passenger" vClass="passenger" />
    <trip id="pas0" depart="0.00" from="-4774365#1" to="28788368#0" type="passenger"/>
    <trip id="pas1" depart="3.00" from="-221893217#0" to="-4902414#2" type="passenger"/>
    <trip id="pas2" depart="6.00" from="343763219#0" to="319453543#5" type="passenger"/>
    <trip id="pas3" depart="9.00" from="4902392" to="-162043157#1" type="passenger"/>
    <trip id="pas4" depart="12.00" from="550753287#3" to="161392075#2" type="passenger"/>
    <trip id="pas5" depart="15.00" from="27570527#0" to="550867442#2" type="passenger"/>
    <trip id="pas6" depart="18.00" from="-8154721#0" to="323823408" type="passenger"/>
    <trip id="pas7" depart="21.00" from="4902418#1" to="386278913" type="passenger"/>
    <trip id="pas8" depart="24.00" from="438155977#0" to="-27467656" type="passenger"/>
    <trip id="pas9" depart="27.00" from="-4774404" to="15968349" type="passenger"/>
    <trip id="pas10" depart="30.00" from="-550867442#2" to="-4902428" type="passenger"/>
    <trip id="pas11" depart="33.00" from="-343763221" to="229481708#0" type="passenger"/>
    <trip id="pas12" depart="36.00" from="-4774404" to="-221893285#0" type="passenger"/>
    <trip id="pas13" depart="39.00" from="-4902399" to="-548651990#0" type="passenger"/>
    <trip id="pas14" depart="42.00" from="161389764" to="-4902441" type="passenger"/>
    <trip id="pas15" depart="45.00" from="96097829#2" to="28788370#1" type="passenger"/>
    <trip id="pas16" depart="48.00" from="96097829#1" to="28885070#1" type="passenger"/>
    <trip id="pas17" depart="51.00" from="-4902414#0" to="438155977#1" type="passenger"/>
    <trip id="pas18" depart="54.00" from="-28788368#1" to="249870999" type="passenger"/>
    <trip id="pas19" depart="57.00" from="221893225" to="550753287#5" type="passenger"/>
    <trip id="pas20" depart="60.00" from="-4902451#2" to="438155977#0" type="passenger"/>
    <trip id="pas21" depart="63.00" from="473684643" to="28885070#1" type="passenger"/>
    <trip id="pas22" depart="66.00" from="-143331549#0" to="161392068" type="passenger"/>
    <trip id="pas23" depart="69.00" from="518473673" to="550753287#4" type="passenger"/>
    <trip id="pas24" depart="72.00" from="4734488" to="-343763219#0" type="passenger"/>
    <trip id="pas25" depart="75.00" from="27570527#2" to="4877450" type="passenger"/>
    <trip id="pas26" depart="78.00" from="-473684642#0" to="161392064#3" type="passenger"/>
    <trip id="pas27" depart="81.00" from="96097829#0" to="4559005#0" type="passenger"/>
    <trip id="pas28" depart="84.00" from="162154108#0" to="28885040#2" type="passenger"/>
    <trip id="pas29" depart="87.00" from="-518474788" to="343763221" type="passenger"/>
    <trip id="pas30" depart="90.00" from="-4774404" to="-4902441" type="passenger"/>
    <trip id="pas31" depart="93.00" from="-473691594" to="-343763219#0" type="passenger"/>
    <trip id="pas32" depart="96.00" from="550712034" to="327956373#0" type="passenger"/>
    <trip id="pas33" depart="99.00" from="229481708#2" to="4902421" type="passenger"/>
    <trip id="pas34" depart="102.00" from="-27840841#1" to="249870999" type="passenger"/>
    <trip id="pas35" depart="105.00" from="161392073#0" to="143331549#2" type="passenger"/>
    <trip id="pas36" depart="108.00" from="4902440#3" to="-473684642#0" type="passenger"/>
    <trip id="pas37" depart="111.00" from="245546867" to="-4902436#1" type="passenger"/>
    <trip id="pas38" depart="114.00" from="550753287#3" to="96097794" type="passenger"/>
    <trip id="pas39" depart="117.00" from="550860118#3" to="343763219#1" type="passenger"/>
    <trip id="pas40" depart="120.00" from="-343763219#1" to="550860118#1" type="passenger"/>
    <trip id="pas41" depart="123.00" from="28885040#3" to="4734475#1" type="passenger"/>
    <trip id="pas42" depart="126.00" from="-4877450" to="-327764057#1" type="passenger"/>
    <trip id="pas43" depart="129.00" from="28885040#3" to="39368522#1" type="passenger"/>
    <trip id="pas44" depart="132.00" from="161392072" to="343763219#1" type="passenger"/>
    <trip id="pas45" depart="135.00" from="-4877455" to="245553663#2" type="passenger"/>
    <trip id="pas46" depart="138.00" from="-550867442#2" to="-462566123" type="passenger"/>
    <trip id="pas47" depart="141.00" from="343763219#0" to="-162154108#0" type="passenger"/>
    <trip id="pas48" depart="144.00" from="-28788365#2" to="327754983" type="passenger"/>
    <trip id="pas49" depart="147.00" from="327764057#1" to="-550867442#0" type="passenger"/>
    <trip id="pas50" depart="150.00" from="245553663#0" to="550674386" type="passenger"/>
    <trip id="pas51" depart="153.00" from="161392075#0" to="143331549#2" type="passenger"/>
    <trip id="pas52" depart="156.00" from="462566123" to="323823408" type="passenger"/>
    <trip id="pas53" depart="159.00" from="161392075#2" to="-162154108#0" type="passenger"/>
    <trip id="pas54" depart="162.00" from="-340955662" to="-343763219#0" type="passenger"/>
    <trip id="pas55" depart="165.00" from="4902373" to="518474788" type="passenger"/>
    <trip id="pas56" depart="168.00" from="549345534" to="-4902433" type="passenger"/>
    <trip id="pas57" depart="171.00" from="473684643" to="549928648#1" type="passenger"/>
    <trip id="pas58" depart="174.00" from="-343763219#1" to="550735550" type="passenger"/>
    <trip id="pas59" depart="177.00" from="4902453" to="550867442#2" type="passenger"/>
    <trip id="pas60" depart="180.00" from="4902374#3" to="518474788" type="passenger"/>
    <trip id="pas61" depart="183.00" from="4806303" to="-28885055#1" type="passenger"/>
    <trip id="pas62" depart="186.00" from="-4774365#1" to="490522132" type="passenger"/>
    <trip id="pas63" depart="189.00" from="550860118#1" to="143331549#2" type="passenger"/>
    <trip id="pas64" depart="192.00" from="550712036#1" to="-28885070#0" type="passenger"/>
    <trip id="pas65" depart="195.00" from="-28788366" to="249870999" type="passenger"/>
    <trip id="pas66" depart="198.00" from="-4902394#4" to="4774365#1" type="passenger"/>
    <trip id="pas67" depart="201.00" from="27570527#2" to="4806303" type="passenger"/>
    <trip id="pas68" depart="204.00" from="344144147#0" to="161392073#0" type="passenger"/>
    <trip id="pas69" depart="207.00" from="161392059#0" to="161389761#0" type="passenger"/>
    <trip id="pas70" depart="210.00" from="-28885040#5" to="249697090#1" type="passenger"/>
    <trip id="pas71" depart="213.00" from="549917967" to="386278913" type="passenger"/>
    <trip id="pas72" depart="216.00" from="-143331549#0" to="15968349" type="passenger"/>
    <trip id="pas73" depart="219.00" from="161392080" to="343763219#1" type="passenger"/>
    <trip id="pas74" depart="222.00" from="162154108#0" to="-4902436#1" type="passenger"/>
    <trip id="pas75" depart="225.00" from="4902373" to="-473684643" type="passenger"/>
    <trip id="pas76" depart="228.00" from="245553663#1" to="-548651990#0" type="passenger"/>
    <trip id="pas77" depart="231.00" from="343763219#0" to="-162043157#1" type="passenger"/>
    <trip id="pas78" depart="234.00" from="4734475#0" to="4902399" type="passenger"/>
    <trip id="pas79" depart="237.00" from="344144147#0" to="86936182" type="passenger"/>
    <trip id="pas80" depart="240.00" from="28885040#4" to="550753287#5" type="passenger"/>
    <trip id="pas81" depart="243.00" from="4902418#2" to="319453544" type="passenger"/>
    <trip id="pas82" depart="246.00" from="-4902377#2" to="4328546#2" type="passenger"/>
    <trip id="pas83" depart="249.00" from="4734488" to="28885040#5" type="passenger"/>
    <trip id="pas84" depart="252.00" from="319453545#1" to="143331549#0" type="passenger"/>
    <trip id="pas85" depart="255.00" from="-27840840#1" to="15968349" type="passenger"/>
    <trip id="pas86" depart="258.00" from="-4902414#3" to="161392068" type="passenger"/>
    <trip id="pas87" depart="261.00" from="438155977#1-AddedOnRampEdge" to="-27803780#0" type="passenger"/>
    <trip id="pas88" depart="264.00" from="161392067" to="-4902418#4" type="passenger"/>
    <trip id="pas89" depart="267.00" from="-8154721#1" to="-162043157#1" type="passenger"/>
    <trip id="pas90" depart="270.00" from="-550712033" to="4902392" type="passenger"/>
    <trip id="pas91" depart="273.00" from="4902441" to="550753287#5" type="passenger"/>
    <trip id="pas92" depart="276.00" from="161392070" to="4902377#2" type="passenger"/>
    <trip id="pas93" depart="279.00" from="-4774365#1" to="-4902441" type="passenger"/>
    <trip id="pas94" depart="282.00" from="161392062" to="-4734472" type="passenger"/>
    <trip id="pas95" depart="285.00" from="221893285#0" to="-343763219#0" type="passenger"/>
    <trip id="pas96" depart="288.00" from="-221893217#0" to="438155977#1" type="passenger"/>
    <trip id="pas97" depart="291.00" from="4734475#0" to="518473674" type="passenger"/>
    <trip id="pas98" depart="294.00" from="-162154108#1" to="319453543#1" type="passenger"/>
    <trip id="pas99" depart="297.00" from="418990606" to="4902394#7" type="passenger"/>
    <trip id="pas100" depart="300.00" from="-386114209" to="386278897" type="passenger"/>
    <trip id="pas101" depart="303.00" from="4734474" to="-28885070#0" type="passenger"/>
    <trip id="pas102" depart="306.00" from="4902399" to="550860119#0" type="passenger"/>
    <trip id="pas103" depart="309.00" from="245553663#9" to="162043156" type="passenger"/>
    <trip id="pas104" depart="312.00" from="4902440#3" to="511815820" type="passenger"/>
    <trip id="pas105" depart="315.00" from="-28788365#1" to="550860118#1" type="passenger"/>
    <trip id="pas106" depart="318.00" from="327764058" to="518473674" type="passenger"/>
    <trip id="pas107" depart="321.00" from="-8154721#0" to="-221893257" type="passenger"/>
    <trip id="pas108" depart="324.00" from="-518474788" to="549928646#0" type="passenger"/>
    <trip id="pas109" depart="327.00" from="4328546#1" to="143331549#2" type="passenger"/>
    <trip id="pas110" depart="330.00" from="-162043156" to="550753287#5" type="passenger"/>
    <trip id="pas111" depart="333.00" from="-27840840#4" to="4806304#0" type="passenger"/>
    <trip id="pas112" depart="336.00" from="245553663#0" to="4902394#2" type="passenger"/>
    <trip id="pas113" depart="339.00" from="245553663#0" to="4902436#1" type="passenger"/>
    <trip id="pas114" depart="342.00" from="-27840841#1" to="-4902444" type="passenger"/>
    <trip id="pas115" depart="345.00" from="4328546#2" to="-8154721#2" type="passenger"/>
    <trip id="pas116" depart="348.00" from="-39368522#5" to="-327764057#1" type="passenger"/>
    <trip id="pas117" depart="351.00" from="550867442#1" to="28885040#5" type="passenger"/>
    <trip id="pas118" depart="354.00" from="-39368523" to="-4902453" type="passenger"/>
    <trip id="pas119" depart="357.00" from="402922224" to="-343763219#0" type="passenger"/>
    <trip id="pas120" depart="360.00" from="550712036#2" to="27840840#4" type="passenger"/>
    <trip id="pas121" depart="363.00" from="96097829#0" to="-327764057#0" type="passenger"/>
    <trip id="pas122" depart="366.00" from="4806304#1" to="-4902451#1" type="passenger"/>
    <trip id="pas123" depart="369.00" from="249871000" to="27570528#2" type="passenger"/>
    <trip id="pas124" depart="372.00" from="462566123" to="550753287#5" type="passenger"/>
    <trip id="pas125" depart="375.00" from="-473691589" to="-4902433" type="passenger"/>
    <trip id="pas126" depart="378.00" from="343763220" to="-39368524#2" type="passenger"/>
    <trip id="pas127" depart="381.00" from="28885040#3" to="15968349" type="passenger"/>
    <trip id="pas128" depart="384.00" from="4328546#2" to="27570528#4" type="passenger"/>
    <trip id="pas129" depart="387.00" from="340955662" to="550712032#1" type="passenger"/>
    <trip id="pas130" depart="390.00" from="245553663#1" to="-28788361#0" type="passenger"/>
    <trip id="pas131" depart="393.00" from="-221893225" to="249870999" type="passenger"/>
    <trip id="pas132" depart="396.00" from="-27840841#1" to="550860118#2" type="passenger"/>
    <trip id="pas133" depart="399.00" from="4902426" to="329013842" type="passenger"/>
    <trip id="pas134" depart="402.00" from="550749977" to="96097834" type="passenger"/>
    <trip id="pas135" depart="405.00" from="344144147#1" to="-8154721#1" type="passenger"/>
    <trip id="pas136" depart="408.00" from="245553663#0" to="-28788368#0" type="passenger"/>
    <trip id="pas137" depart="411.00" from="344144147#0" to="518473679" type="passenger"/>
    <trip id="pas138" depart="414.00" from="4902394#2" to="319453545#1" type="passenger"/>
    <trip id="pas139" depart="417.00" from="27570528#0" to="247833370#1" type="passenger"/>
    <trip id="pas140" depart="420.00" from="4734475#4" to="-4902418#2" type="passenger"/>
    <trip id="pas141" depart="423.00" from="-28885040#2" to="550867442#2" type="passenger"/>
    <trip id="pas142" depart="426.00" from="-343763219#1" to="319453545#1" type="passenger"/>
    <trip id="pas143" depart="429.00" from="549939609#0" to="28788370#0" type="passenger"/>
    <trip id="pas144" depart="432.00" from="245553663#0" to="-39368522#2" type="passenger"/>
    <trip id="pas145" depart="435.00" from="27570527#2" to="162043157#1" type="passenger"/>
    <trip id="pas146" depart="438.00" from="343763220" to="511815819" type="passenger"/>
    <trip id="pas147" depart="441.00" from="511817673" to="27570526#1" type="passenger"/>
    <trip id="pas148" depart="444.00" from="343763219#0" to="-39368524#0" type="passenger"/>
    <trip id="pas149" depart="447.00" from="4902441" to="518474788" type="passenger"/>
    <trip id="pas150" depart="450.00" from="-8154721#1" to="161392066" type="passenger"/>
    <trip id="pas151" depart="453.00" from="549939609#0" to="96097829#2" type="passenger"/>
    <trip id="pas152" depart="456.00" from="4734472" to="249870999" type="passenger"/>
    <trip id="pas153" depart="459.00" from="-4902451#2" to="221893217#4" type="passenger"/>
    <trip id="pas154" depart="462.00" from="-4877455" to="550712032#1" type="passenger"/>
    <trip id="pas155" depart="465.00" from="327764059#1" to="249697090#2" type="passenger"/>
    <trip id="pas156" depart="468.00" from="39368522#2" to="4902374#2" type="passenger"/>
    <trip id="pas157" depart="471.00" from="245553663#3" to="550674386" type="passenger"/>
    <trip id="pas158" depart="474.00" from="28885070#2" to="162154113" type="passenger"/>
    <trip id="pas159" depart="477.00" from="327764058" to="39368522#2" type="passenger"/>
    <trip id="pas160" depart="480.00" from="343763220" to="518473676" type="passenger"/>
    <trip id="pas161" depart="483.00" from="162154108#0" to="343763219#1" type="passenger"/>
    <trip id="pas162" depart="486.00" from="4559381" to="-28788366" type="passenger"/>
    <trip id="pas163" depart="489.00" from="-386278897" to="-343763219#0" type="passenger"/>
    <trip id="pas164" depart="492.00" from="27570527#3" to="550867442#2" type="passenger"/>
    <trip id="pas165" depart="495.00" from="27490680" to="550712032#1" type="passenger"/>
    <trip id="pas166" depart="498.00" from="-518474788" to="-28885070#0" type="passenger"/>
    <trip id="pas167" depart="501.00" from="550860118#2" to="4902451#1" type="passenger"/>
    <trip id="pas168" depart="504.00" from="-550865716" to="4902433" type="passenger"/>
    <trip id="pas169" depart="507.00" from="344144147#1" to="343763219#1" type="passenger"/>
    <trip id="pas170" depart="510.00" from="27840840#2" to="550712033" type="passenger"/>
    <trip id="pas171" depart="513.00" from="-4774365#1" to="-27570528#3" type="passenger"/>
    <trip id="pas172" depart="516.00" from="4902414#2" to="550712032#1" type="passenger"/>
    <trip id="pas173" depart="519.00" from="-327764057#2" to="550753287#4" type="passenger"/>
    <trip id="pas174" depart="522.00" from="344144147#0" to="4902374#1" type="passenger"/>
    <trip id="pas175" depart="525.00" from="550741745" to="249697090#0" type="passenger"/>
    <trip id="pas176" depart="528.00" from="245553663#0" to="247833368" type="passenger"/>
    <trip id="pas177" depart="531.00" from="-550867442#2" to="27570527#2" type="passenger"/>
    <trip id="pas178" depart="534.00" from="-28788361#1" to="4734490" type="passenger"/>
    <trip id="pas179" depart="537.00" from="27570528#1" to="550867442#2" type="passenger"/>
    <trip id="pas180" depart="540.00" from="-550735550" to="245553663#4" type="passenger"/>
    <trip id="pas181" depart="543.00" from="343763220" to="438155977#1" type="passenger"/>
    <trip id="pas182" depart="546.00" from="-473691589" to="-4902441" type="passenger"/>
    <trip id="pas183" depart="549.00" from="4902453" to="161392070" type="passenger"/>
    <trip id="pas184" depart="552.00" from="-327764057#2" to="-343763219#0" type="passenger"/>
    <trip id="pas185" depart="555.00" from="-4902394#1" to="-473684643" type="passenger"/>
    <trip id="pas186" depart="558.00" from="343763220" to="-221893257" type="passenger"/>
    <trip id="pas187" depart="561.00" from="-162154108#1" to="4902431" type="passenger"/>
    <trip id="pas188" depart="564.00" from="-4877455" to="161392068" type="passenger"/>
    <trip id="pas189" depart="567.00" from="-386278897" to="-27570527#0" type="passenger"/>
    <trip id="pas190" depart="570.00" from="462566123" to="28885040#5" type="passenger"/>
    <trip id="pas191" depart="573.00" from="249697090#1" to="27570528#4" type="passenger"/>
    <trip id="pas192" depart="576.00" from="245234799#3" to="245553663#6" type="passenger"/>
    <trip id="pas193" depart="579.00" from="39368522#2" to="27840841#1" type="passenger"/>
    <trip id="pas194" depart="582.00" from="-27570528#4" to="143331549#1" type="passenger"/>
    <trip id="pas195" depart="585.00" from="327764057#0" to="319453545#0" type="passenger"/>
    <trip id="pas196" depart="588.00" from="343763219#0" to="4902394#7" type="passenger"/>
    <trip id="pas197" depart="591.00" from="4559074#4" to="-4902441" type="passenger"/>
    <trip id="pas198" depart="594.00" from="221893217#2" to="-4902453" type="passenger"/>
    <trip id="pas199" depart="597.00" from="-518474788" to="27570528#4" type="passenger"/>
    <trip id="pas200" depart="600.00" from="-27840841#1" to="4877455" type="passenger"/>
    <trip id="pas201" depart="603.00" from="28885070#0" to="162154108#1" type="passenger"/>
    <trip id="pas202" depart="606.00" from="-550867442#0" to="4902394#7" type="passenger"/>
    <trip id="pas203" depart="609.00" from="4902440#0" to="550867442#2" type="passenger"/>
    <trip id="pas204" depart="612.00" from="4902399" to="386278913" type="passenger"/>
    <trip id="pas205" depart="615.00" from="549939609#2" to="518473674" type="passenger"/>
    <trip id="pas206" depart="618.00" from="4328546#2" to="161392064#0" type="passenger"/>
    <trip id="pas207" depart="621.00" from="4734472" to="-4902441" type="passenger"/>
    <trip id="pas208" depart="624.00" from="473684643" to="327764059#0" type="passenger"/>
    <trip id="pas209" depart="627.00" from="-343763219#1" to="386278913" type="passenger"/>
    <trip id="pas210" depart="630.00" from="343763220" to="27840841#1" type="passenger"/>
    <trip id="pas211" depart="633.00" from="162154108#0" to="-8154723" type="passenger"/>
    <trip id="pas212" depart="636.00" from="39368522#0" to="27840841#1" type="passenger"/>
    <trip id="pas213" depart="639.00" from="344144147#0" to="-27467656" type="passenger"/>
    <trip id="pas214" depart="642.00" from="-143331549#2" to="161389762-AddedOnRampEdge" type="passenger"/>
    <trip id="pas215" depart="645.00" from="-473691590#0" to="-343763220" type="passenger"/>
    <trip id="pas216" depart="648.00" from="-4902394#4" to="161392070" type="passenger"/>
    <trip id="pas217" depart="651.00" from="4328546#2" to="28788365#1" type="passenger"/>
    <trip id="pas218" depart="654.00" from="549939609#0" to="518474788" type="passenger"/>
    <trip id="pas219" depart="657.00" from="549928642#0" to="162154108#1" type="passenger"/>
    <trip id="pas220" depart="660.00" from="343763219#0" to="-473691590#1" type="passenger"/>
    <trip id="pas221" depart="663.00" from="473684642#1" to="28788361#0" type="passenger"/>
    <trip id="pas222" depart="666.00" from="4734475#0" to="4902394#4" type="passenger"/>
    <trip id="pas223" depart="669.00" from="27840841#0" to="4328546#0" type="passenger"/>
    <trip id="pas224" depart="672.00" from="247833367" to="27803780#2" type="passenger"/>
    <trip id="pas225" depart="675.00" from="245553663#8" to="-473684643" type="passenger"/>
    <trip id="pas226" depart="678.00" from="162154108#0" to="28885040#5" type="passenger"/>
    <trip id="pas227" depart="681.00" from="-343763219#1" to="221893217#4" type="passenger"/>
    <trip id="pas228" depart="684.00" from="-4902433" to="247833368" type="passenger"/>
    <trip id="pas229" depart="687.00" from="-518474788" to="386114209" type="passenger"/>
    <trip id="pas230" depart="690.00" from="-518474575" to="343763219#1" type="passenger"/>
    <trip id="pas231" depart="693.00" from="-327764057#2" to="162154108#1" type="passenger"/>
    <trip id="pas232" depart="696.00" from="550712036#0" to="161392064#1" type="passenger"/>
    <trip id="pas233" depart="699.00" from="39368522#2" to="28885040#5" type="passenger"/>
    <trip id="pas234" depart="702.00" from="550745968" to="27840841#1" type="passenger"/>
    <trip id="pas235" depart="705.00" from="4734488" to="-343763219#0" type="passenger"/>
    <trip id="pas236" depart="708.00" from="4902392" to="-4734472" type="passenger"/>
    <trip id="pas237" depart="711.00" from="179109642#0" to="15968349" type="passenger"/>
    <trip id="pas238" depart="714.00" from="4902421" to="221893217#3" type="passenger"/>
    <trip id="pas239" depart="717.00" from="221893257" to="143331549#2" type="passenger"/>
    <trip id="pas240" depart="720.00" from="-4902394#0" to="438155977#1" type="passenger"/>
    <trip id="pas241" depart="723.00" from="4902441" to="15968349" type="passenger"/>
    <trip id="pas242" depart="726.00" from="4734476#1" to="-8154723" type="passenger"/>
    <trip id="pas243" depart="729.00" from="162154108#0" to="550753287#4" type="passenger"/>
    <trip id="pas244" depart="732.00" from="-4774365#1" to="27570528#2" type="passenger"/>
    <trip id="pas245" depart="735.00" from="-4877450" to="96097794" type="passenger"/>
    <trip id="pas246" depart="738.00" from="-327764057#1" to="15968349" type="passenger"/>
    <trip id="pas247" depart="741.00" from="4902418#2" to="473691589" type="passenger"/>
    <trip id="pas248" depart="744.00" from="-327764057#2" to="4774365#1" type="passenger"/>
    <trip id="pas249" depart="747.00" from="-27840840#2" to="-550712033" type="passenger"/>
    <trip id="pas250" depart="750.00" from="4902421" to="319453545#0" type="passenger"/>
    <trip id="pas251" depart="753.00" from="-28788368#1" to="15968349" type="passenger"/>
    <trip id="pas252" depart="756.00" from="-162154108#1" to="28885040#1" type="passenger"/>
    <trip id="pas253" depart="759.00" from="161392080" to="386278913" type="passenger"/>
    <trip id="pas254" depart="762.00" from="-4877455" to="247833371#1" type="passenger"/>
    <trip id="pas255" depart="765.00" from="344144147#0" to="-28788362" type="passenger"/>
    <trip id="pas256" depart="768.00" from="473684642#0" to="4877455" type="passenger"/>
    <trip id="pas257" depart="771.00" from="-386278897" to="4902418#1" type="passenger"/>
    <trip id="pas258" depart="774.00" from="-229481708#2" to="-4902414#3" type="passenger"/>
    <trip id="pas259" depart="777.00" from="4734475#0" to="-4902394#4" type="passenger"/>
    <trip id="pas260" depart="780.00" from="4902453" to="161392074" type="passenger"/>
    <trip id="pas261" depart="783.00" from="245553663#3" to="550732345" type="passenger"/>
    <trip id="pas262" depart="786.00" from="247833371#1-AddedOnRampEdge" to="4902447" type="passenger"/>
    <trip id="pas263" depart="789.00" from="27570528#2" to="161392068" type="passenger"/>
    <trip id="pas264" depart="792.00" from="-511815819" to="386114209" type="passenger"/>
    <trip id="pas265" depart="795.00" from="4902474" to="162154113" type="passenger"/>
    <trip id="pas266" depart="798.00" from="96097829#2" to="143331549#0" type="passenger"/>
    <trip id="pas267" depart="801.00" from="8148885#1" to="550753287#5" type="passenger"/>
    <trip id="pas268" depart="804.00" from="39368522#0" to="550753287#5" type="passenger"/>
    <trip id="pas269" depart="807.00" from="28788360#2" to="386278897" type="passenger"/>
    <trip id="pas270" depart="810.00" from="39368522#0" to="550753287#5" type="passenger"/>
    <trip id="pas271" depart="813.00" from="-550867442#2" to="4902394#7" type="passenger"/>
    <trip id="pas272" depart="816.00" from="4559381" to="28788365#0" type="passenger"/>
    <trip id="pas273" depart="819.00" from="15968284" to="327764057#2" type="passenger"/>
    <trip id="pas274" depart="822.00" from="-4902394#7" to="-550745968" type="passenger"/>
    <trip id="pas275" depart="825.00" from="179109642#1" to="96097829#1" type="passenger"/>
    <trip id="pas276" depart="828.00" from="-4902436#1" to="550712034" type="passenger"/>
    <trip id="pas277" depart="831.00" from="245553663#0" to="-340955662" type="passenger"/>
    <trip id="pas278" depart="834.00" from="4902440#1" to="161392068" type="passenger"/>
    <trip id="pas279" depart="837.00" from="4902441" to="4774404" type="passenger"/>
    <trip id="pas280" depart="840.00" from="549939609#1" to="4328546#2" type="passenger"/>
    <trip id="pas281" depart="843.00" from="-550867442#1" to="4902451#0" type="passenger"/>
    <trip id="pas282" depart="846.00" from="-386278913" to="550860119#2" type="passenger"/>
    <trip id="pas283" depart="849.00" from="162043156" to="550712032#1" type="passenger"/>
    <trip id="pas284" depart="852.00" from="-343763219#1" to="-4734472" type="passenger"/>
    <trip id="pas285" depart="855.00" from="-4902394#1" to="4328546#0" type="passenger"/>
    <trip id="pas286" depart="858.00" from="245553663#7" to="-473684643" type="passenger"/>
    <trip id="pas287" depart="861.00" from="343763220" to="4806304#0" type="passenger"/>
    <trip id="pas288" depart="864.00" from="343763219#0" to="4902394#7" type="passenger"/>
    <trip id="pas289" depart="867.00" from="245553663#4" to="39368524#1" type="passenger"/>
    <trip id="pas290" depart="870.00" from="39368522#1" to="161389761#1" type="passenger"/>
    <trip id="pas291" depart="873.00" from="162154108#0" to="27840841#1" type="passenger"/>
    <trip id="pas292" depart="876.00" from="550867442#0" to="-343763219#0" type="passenger"/>
    <trip id="pas293" depart="879.00" from="-550867442#2" to="327764057#2" type="passenger"/>
    <trip id="pas294" depart="882.00" from="-4902414#0" to="-548651990#1" type="passenger"/>
    <trip id="pas295" depart="885.00" from="-27840841#1" to="15968349" type="passenger"/>
    <trip id="pas296" depart="888.00" from="143331549#0" to="386278913" type="passenger"/>
    <trip id="pas297" depart="891.00" from="-4902392" to="518474788" type="passenger"/>
    <trip id="pas298" depart="894.00" from="-343763221" to="161392070" type="passenger"/>
    <trip id="pas299" depart="897.00" from="4734476#1" to="28788362" type="passenger"/>
    <trip id="pas300" depart="900.00" from="247833370#1" to="28788365#0" type="passenger"/>
    <trip id="pas301" depart="903.00" from="550860118#1" to="-4902441" type="passenger"/>
    <trip id="pas302" depart="906.00" from="245553663#1" to="549928646#1" type="passenger"/>
    <trip id="pas303" depart="909.00" from="-550865716" to="245553663#6" type="passenger"/>
    <trip id="pas304" depart="912.00" from="245553663#8" to="4902394#7" type="passenger"/>
    <trip id="pas305" depart="915.00" from="-4902426" to="86936182" type="passenger"/>
    <trip id="pas306" depart="918.00" from="39368522#0" to="-327764057#1" type="passenger"/>
    <trip id="pas307" depart="921.00" from="550867442#0" to="245553663#1" type="passenger"/>
    <trip id="pas308" depart="924.00" from="550712036#1" to="4902394#0" type="passenger"/>
    <trip id="pas309" depart="927.00" from="245553663#5" to="-27467656" type="passenger"/>
    <trip id="pas310" depart="930.00" from="-518473678" to="386278913" type="passenger"/>
    <trip id="pas311" depart="933.00" from="-343763221" to="86936182" type="passenger"/>
    <trip id="pas312" depart="936.00" from="27570526#0" to="4774365#1" type="passenger"/>
    <trip id="pas313" depart="939.00" from="8148885#0" to="343763219#1" type="passenger"/>
    <trip id="pas314" depart="942.00" from="28788365#2" to="4806304#1" type="passenger"/>
    <trip id="pas315" depart="945.00" from="4902433" to="-39368522#1" type="passenger"/>
    <trip id="pas316" depart="948.00" from="550745968" to="-28885070#0" type="passenger"/>
    <trip id="pas317" depart="951.00" from="-162154108#1" to="161392064#5" type="passenger"/>
    <trip id="pas318" depart="954.00" from="-341224416" to="473684642#0" type="passenger"/>
    <trip id="pas319" depart="957.00" from="549939609#0" to="549917967" type="passenger"/>
    <trip id="pas320" depart="960.00" from="4559381" to="-27570528#3" type="passenger"/>
    <trip id="pas321" depart="963.00" from="-386278897" to="550712032#1" type="passenger"/>
    <trip id="pas322" depart="966.00" from="-548651990#1" to="162154113" type="passenger"/>