<?xml version='1.0' encoding='utf8'?>
<configuration noNamespaceSchemaLocation="http://sumo.dlr.de/xsd/sumoConfiguration.xsd" xmlns="http://www.w3.org/2001/XMLSchema-instance"><input><net-file value="sp.net.xml" /><route-files value="sp.bus.rou.xml,sp.passenger.rou.xml,sp.truck.rou.xml,sp.pedestrian.rou.xml,sp.motorcycle.rou.xml" /><additional-files value="sp.poly.xml" /></input><processing><ignore-route-errors value="true" /></processing><processing><device.rerouting.adaptation-steps value="100" /></processing><report><verbose value="true" /><duration-log.statistics value="true" /><no-step-log value="true" /></report><gui><gui-settings-file value="sp.view.xml" /></gui></configuration>