<?xml version="1.0" encoding="UTF-8"?>

<!-- generated on Thu Jan  4 15:02:28 2018 by SUMO netconvert Version 0.30.0
<?xml version="1.0" encoding="UTF-8"?>

<configuration xmlns:xsi="http://www.w3.org/2001/XMLSchema-instance" xsi:noNamespaceSchemaLocation="http://sumo.dlr.de/xsd/netconvertConfiguration.xsd">

    <input>
        <type-files value="/media/jefferson/Dados/workspace/sumo-0.30.0/data/typemap/osmNetconvert.typ.xml,/media/jefferson/Dados/workspace/sumo-0.30.0/data/typemap/osmNetconvertUrbanBrSP.typ.xml,/media/jefferson/Dados/workspace/sumo-0.30.0/data/typemap/osmNetconvertPedestrians.typ.xml"/>
        <osm-files value="/media/jefferson/Dados/workspace/GoodsTracker/vanet/sp/sp_bbox.osm.xml"/>
    </input>

    <output>
        <output-file value="/media/jefferson/Dados/workspace/GoodsTracker/vanet/sp/sp.net.xml"/>
        <plain-output-prefix value="/media/jefferson/Dados/workspace/GoodsTracker/vanet/sp/sp"/>
        <output.street-names value="true"/>
        <output.original-names value="true"/>
    </output>

    <projection>
        <proj.utm value="true"/>
    </projection>

    <tls_building>
        <tls.discard-loaded value="false"/>
        <tls.discard-simple value="false"/>
        <tls.join value="true"/>
        <tls.join-dist value="40"/>
        <tls.guess-signals value="false"/>
    </tls_building>

    <ramp_guessing>
        <ramps.guess value="true"/>
    </ramp_guessing>

    <processing>
        <geometry.remove value="true"/>
        <roundabouts.guess value="false"/>
        <junctions.join value="true"/>
        <junctions.join-dist value="5"/>
        <junctions.corner-detail value="5"/>
        <sidewalks.guess value="false"/>
        <crossings.guess value="true"/>
    </processing>

    <building_defaults>
        <default.junctions.radius value="1"/>
    </building_defaults>

    <report>
        <verbose value="true"/>
    </report>

</configuration>
-->

<tlLogics version="0.27" xmlns:xsi="http://www.w3.org/2001/XMLSchema-instance" xsi:noNamespaceSchemaLocation="http://sumo.dlr.de/xsd/tllogic_file.xsd">
    <tlLogic id="1699011837" type="static" programID="0" offset="0">
        <phase duration="86" state="GGG"/>
        <phase duration="4" state="yyy"/>
    </tlLogic>
    <tlLogic id="1699011854" type="static" programID="0" offset="0">
        <phase duration="86" state="GG"/>
        <phase duration="4" state="yy"/>
    </tlLogic>
    <tlLogic id="1733690370" type="static" programID="0" offset="0">
        <phase duration="80" state="GG"/>
        <phase duration="10" state="yy"/>
    </tlLogic>
    <tlLogic id="1733690371" type="static" programID="0" offset="0">
        <phase duration="80" state="GG"/>
        <phase duration="10" state="yy"/>
    </tlLogic>
    <tlLogic id="27689033" type="static" programID="0" offset="0">
        <phase duration="86" state="GGG"/>
        <phase duration="4" state="yyy"/>
    </tlLogic>
    <tlLogic id="30124516" type="static" programID="0" offset="0">
        <phase duration="86" state="GGG"/>
        <phase duration="4" state="yyy"/>
    </tlLogic>
    <tlLogic id="30124517" type="static" programID="0" offset="0">
        <phase duration="86" state="GG"/>
        <phase duration="4" state="yy"/>
    </tlLogic>
    <tlLogic id="30125183" type="static" programID="0" offset="0">
        <phase duration="86" state="GG"/>
        <phase duration="4" state="yy"/>
    </tlLogic>
    <tlLogic id="302727652" type="static" programID="0" offset="0">
        <phase duration="81" state="gGGGG"/>
        <phase duration="5" state="gGGGr"/>
        <phase duration="4" state="yyyyr"/>
    </tlLogic>
    <tlLogic id="30517505" type="static" programID="0" offset="0">
        <phase duration="80" state="G"/>
        <phase duration="10" state="y"/>
    </tlLogic>
    <tlLogic id="317497162" type="static" programID="0" offset="0">
        <phase duration="86" state="GGG"/>
        <phase duration="4" state="yyy"/>
    </tlLogic>
    <tlLogic id="31944009" type="static" programID="0" offset="0">
        <phase duration="41" state="GGrrrr"/>
        <phase duration="4" state="yyrrrr"/>
        <phase duration="36" state="rrgGGG"/>
        <phase duration="5" state="rrgGGr"/>
        <phase duration="4" state="rryyyr"/>
    </tlLogic>
    <tlLogic id="5057481093" type="static" programID="0" offset="0">
        <phase duration="86" state="GGGG"/>
        <phase duration="4" state="yyyy"/>
    </tlLogic>
    <tlLogic id="5318702796" type="static" programID="0" offset="0">
        <phase duration="76" state="GgGr"/>
        <phase duration="4" state="yyyr"/>
        <phase duration="5" state="rrrG"/>
        <phase duration="5" state="rrrr"/>
    </tlLogic>
    <tlLogic id="5319160515" type="static" programID="0" offset="0">
        <phase duration="30" state="rrrGGGGGGGrrr"/>
        <phase duration="10" state="rrryyyyyyyrrr"/>
        <phase duration="25" state="gGGrrrrrrrrrG"/>
        <phase duration="5" state="gGGrrrrrrrrrr"/>
        <phase duration="10" state="yyyrrrrrrrrrr"/>
        <phase duration="5" state="rrrrrrrrrrGGG"/>
        <phase duration="5" state="rrrrrrrrrrrrr"/>
    </tlLogic>
    <tlLogic id="cluster_27835716_28109005" type="static" programID="0" offset="0">
        <phase duration="21" state="GGGggrrrrrrgGGGgrrGGrr"/>
        <phase duration="5" state="GGGggrrrrrrgGGGgrrrrrr"/>
        <phase duration="4" state="yyyggrrrrrryyyygrrrrrr"/>
        <phase duration="6" state="rrrGGrrrrrrrrrrGrrrrrr"/>
        <phase duration="4" state="rrryyrrrrrrrrrryrrrrrr"/>
        <phase duration="21" state="rrrrrGGgGggrrrrrGrrrGr"/>
        <phase duration="5" state="rrrrrGGgGggrrrrrrrrrrr"/>
        <phase duration="4" state="rrrrryygyggrrrrrrrrrrr"/>
        <phase duration="6" state="rrrrrrrGrGGrrrrrrrrrrr"/>
        <phase duration="4" state="rrrrrrryryyrrrrrrrrrrr"/>
        <phase duration="5" state="rrrrrrrrrrrrrrrrGGGGGG"/>
        <phase duration="5" state="rrrrrrrrrrrrrrrrrrrrrr"/>
    </tlLogic>
    <tlLogic id="joinedS_0" type="static" programID="0" offset="0">
        <phase duration="22" state="GGGGGGGGggrrr"/>
        <phase duration="4" state="yyyyyyyyggrrr"/>
        <phase duration="6" state="rrrrrrrrGGrrr"/>
        <phase duration="4" state="rrrrrrrryyrrr"/>
        <phase duration="18" state="GGGGGGrrrrGGG"/>
        <phase duration="5" state="GGGGGGrrrrrrr"/>
        <phase duration="4" state="yyyyyyrrrrrrr"/>
        <phase duration="18" state="GGGGGGrrrrGGG"/>
        <phase duration="5" state="GGGGGGrrrrrrr"/>
        <phase duration="4" state="yyyyyyrrrrrrr"/>
    </tlLogic>
    <tlLogic id="joinedS_1" type="static" programID="0" offset="0">
        <phase duration="6" state="rrrrrrrrrrrrrrrrrrrgGGGrrrgGGGrrrrrrGGGGGrGrGrGrG"/>
        <phase duration="5" state="rrrrrrrrrrrrrrrrrrrgGGGrrrgGGGrrrrrrrrrrrrrrrrrrr"/>
        <phase duration="4" state="rrrrrrrrrrrrrrrrrrryyyyrrryyyyrrrrrrrrrrrrrrrrrrr"/>
        <phase duration="6" state="gGggrrrrgGggrrrrrrrrrrrrrrrrrrrrrrrrrrGrGGGGGGGGG"/>
        <phase duration="5" state="gGggrrrrgGggrrrrrrrrrrrrrrrrrrrrrrrrrrrrrrrrrrrrr"/>
        <phase duration="4" state="yyggrrrryyggrrrrrrrrrrrrrrrrrrrrrrrrrrrrrrrrrrrrr"/>
        <phase duration="6" state="rrGGrrrrrrGGrrrrrrrrrrrrrrrrrrrrrrrrrrrrrrrrrrrrr"/>
        <phase duration="4" state="rryyrrrrrryyrrrrrrrrrrrrrrrrrrrrrrrrrrrrrrrrrrrrr"/>
        <phase duration="6" state="rrrrgGggrrrrgGggrrrrrrrrrrrrrrrrrrrrGGrGrGGGGGGGG"/>
        <phase duration="5" state="rrrrgGggrrrrgGggrrrrrrrrrrrrrrrrrrrrrrrrrrrrrrrrr"/>
        <phase duration="4" state="rrrryyggrrrryyggrrrrrrrrrrrrrrrrrrrrrrrrrrrrrrrrr"/>
        <phase duration="6" state="rrrrrrGGrrrrrrGGrrrrrrrrrrrrrrrrrrrrrrrrrrrrrrrrr"/>
        <phase duration="4" state="rrrrrryyrrrrrryyrrrrrrrrrrrrrrrrrrrrrrrrrrrrrrrrr"/>
        <phase duration="6" state="rrrrrrrrrrrrrrrrgGgrrrrGggrrrrGgggGgGGGGGGrGrGrGr"/>
        <phase duration="5" state="rrrrrrrrrrrrrrrrgGgrrrrGggrrrrGgggGgrrrrrrrrrrrrr"/>
        <phase duration="4" state="rrrrrrrrrrrrrrrryygrrrryggrrrryggyygrrrrrrrrrrrrr"/>
        <phase duration="6" state="rrrrrrrrrrrrrrrrrrgrrrrGGGrrrrGGGrrgrrrrrrrrrrrrr"/>
        <phase duration="4" state="rrrrrrrrrrrrrrrrrryrrrryyyrrrryyyrryrrrrrrrrrrrrr"/>
    </tlLogic>
    <tlLogic id="joinedS_2" type="static" programID="0" offset="0">
        <phase duration="31" state="GGGGrrrrrrGGGGrrrrrrrrG"/>
        <phase duration="5" state="GGGGrrrrrrGGGGrrrrrrrrr"/>
        <phase duration="4" state="yyyyrrrrrryyyyrrrrrrrrr"/>
        <phase duration="31" state="rrrrGGGGGGrrrrGGGGGrGGr"/>
        <phase duration="5" state="rrrrGGGGGGrrrrGGGGGrrrr"/>
        <phase duration="4" state="rrrryyyyyyrrrryyyyyrrrr"/>
        <phase duration="5" state="rrrrrrrrrrrrrrrrrrrGGGG"/>
        <phase duration="5" state="rrrrrrrrrrrrrrrrrrrrrrr"/>
    </tlLogic>
    <tlLogic id="joinedS_3" type="static" programID="0" offset="0">
        <phase duration="17" state="GGGGGGrrrggggGGGrrrGGG"/>
        <phase duration="5" state="GGGGGGrrrggggGGGrrrrrr"/>
        <phase duration="4" state="yyyyyyrrrggggyyyrrrrrr"/>
        <phase duration="6" state="rrrrrrrrrGGGGrrrrrrrrr"/>
        <phase duration="4" state="rrrrrrrrryyyyrrrrrrrrr"/>
        <phase duration="18" state="GGGrrrGGrrrrrrrrrGGrGG"/>
        <phase duration="5" state="GGGrrrGGrrrrrrrrrrrrrr"/>
        <phase duration="4" state="yyyrrryyrrrrrrrrrrrrrr"/>
        <phase duration="18" state="GGGrrrrrGrrrGrrrGrGGrr"/>
        <phase duration="5" state="GGGrrrrrGrrrGrrrGrrrrr"/>
        <phase duration="4" state="yyyrrrrryrrryrrryrrrrr"/>
    </tlLogic>
    <tlLogic id="joinedS_4" type="static" programID="0" offset="0">
        <phase duration="26" state="GGGGGGggrrrgGGGgrrrrrGrrG"/>
        <phase duration="5" state="GGGGGGggrrrgGGGgrrrrrrrrr"/>
        <phase duration="4" state="yyyyyyggrrryyyygrrrrrrrrr"/>
        <phase duration="6" state="GGGrrrGGrrrrrrrGrrrrrrrrr"/>
        <phase duration="4" state="yyyrrryyrrrrrrryrrrrrrrrr"/>
        <phase duration="26" state="GGGrrrrrgggrrrrrgGgGGrGGr"/>
        <phase duration="5" state="GGGrrrrrgggrrrrrgGgrrrrrr"/>
        <phase duration="4" state="yyyrrrrryggrrrrryygrrrrrr"/>
        <phase duration="6" state="GGGrrrrrrGGrrrrrrrGrrrrrr"/>
        <phase duration="4" state="yyyrrrrrryyrrrrrrryrrrrrr"/>
    </tlLogic>
    <tlLogic id="joinedS_5" type="static" programID="0" offset="0">
        <phase duration="26" state="rrrrrrGgggrrrGGGGgGGGGgrrrrgggGGrrGrrrrGGrrr"/>
        <phase duration="5" state="rrrrrrGgggrrrGGGGgGGGGgrrrrgggrrrrrrrrrrrrrr"/>
        <phase duration="10" state="rrrrrrygggrrryyyygyyyygrrrrgggrrrrrrrrrrrrrr"/>
        <phase duration="6" state="rrrrrrGGGGrrrrrrrgrrrrgrrrrGGGrrrrrrrrrrrrrr"/>
        <phase duration="10" state="rrrrrryyyyrrrrrrryrrrryrrrryyyrrrrrrrrrrrrrr"/>
        <phase duration="26" state="GGGrrrGgggrrrrrrrrrrrrrGGgggggrGrGGGGrGrrGrG"/>
        <phase duration="5" state="GGGrrrGgggrrrrrrrrrrrrrGGgggggrrrrrrrrrrrrrr"/>
        <phase duration="10" state="yyyrrryyyyrrrrrrrrrrrrryyyygggrrrrrrrrrrrrrr"/>
        <phase duration="6" state="rrrrrrGGGGrrrrrrrrrrrrrrrrrGGGrrrrrrrrrrrrrr"/>
        <phase duration="10" state="rrrrrryyyyrrrrrrrrrrrrrrrrryyyrrrrrrrrrrrrrr"/>
        <phase duration="26" state="rrrGGGrrrrGGgrrrrrrrrrrrrrrrrrGrGGrGGrGGGGGG"/>
        <phase duration="5" state="rrrGGGrrrrGGgrrrrrrrrrrrrrrrrrrrrrrrrrrrrrrr"/>
        <phase duration="10" state="rrryyyrrrryyyrrrrrrrrrrrrrrrrrrrrrrrrrrrrrrr"/>
        <phase duration="5" state="rrrrrrrrrrrrrrrrrrrrrrrrrrrrrrGGGGGGGGGGGGGG"/>
        <phase duration="5" state="rrrrrrrrrrrrrrrrrrrrrrrrrrrrrrrrrrrrrrrrrrrr"/>
    </tlLogic>
    <tlLogic id="joinedS_6" type="static" programID="0" offset="0">
        <phase duration="86" state="GGG"/>
        <phase duration="4" state="yyy"/>
    </tlLogic>

    <connection from="-27570528#0" to="161392064#3" fromLane="1" toLane="1" tl="joinedS_4" linkIndex="8"/>
    <connection from="-27570528#0" to="549928635" fromLane="1" toLane="3" tl="joinedS_4" linkIndex="9"/>
    <connection from="-27570528#0" to="27570528#0" fromLane="1" toLane="1" tl="joinedS_4" linkIndex="10"/>
    <connection from="-28788362" to="4902394#0" fromLane="1" toLane="1" tl="joinedS_1" linkIndex="23"/>
    <connection from="-28788362" to="161392064#0" fromLane="1" toLane="3" tl="joinedS_1" linkIndex="24"/>
    <connection from="-28788362" to="28788362" fromLane="1" toLane="1" tl="joinedS_1" linkIndex="25"/>
    <connection from="-4774365#0" to="-462566123" fromLane="1" toLane="1" tl="5319160515" linkIndex="0"/>
    <connection from="-4774365#0" to="550873590" fromLane="1" toLane="2" tl="5319160515" linkIndex="1"/>
    <connection from="-4774365#0" to="550873590" fromLane="2" toLane="3" tl="5319160515" linkIndex="2"/>
    <connection from="-4902394#0" to="161392064#0" fromLane="1" toLane="1" tl="joinedS_1" linkIndex="16"/>
    <connection from="-4902394#0" to="28788362" fromLane="1" toLane="1" tl="joinedS_1" linkIndex="17"/>
    <connection from="-4902394#0" to="4902394#0" fromLane="1" toLane="1" tl="joinedS_1" linkIndex="18"/>
    <connection from="-4902433" to="245553663#4" fromLane="1" toLane="1" tl="31944009" linkIndex="0"/>
    <connection from="-4902433" to="4902433" fromLane="1" toLane="1" tl="31944009" linkIndex="1"/>
    <connection from="-4902436#0" to="-4902433" fromLane="1" toLane="1" tl="joinedS_1" linkIndex="12"/>
    <connection from="-4902436#0" to="-549928646#1" fromLane="1" toLane="1" tl="joinedS_1" linkIndex="13"/>
    <connection from="-4902436#0" to="4902416#0" fromLane="1" toLane="2" tl="joinedS_1" linkIndex="14"/>
    <connection from="-4902436#0" to="4902436#0" fromLane="1" toLane="1" tl="joinedS_1" linkIndex="15"/>
    <connection from="-549928646#0" to="549928642#0" fromLane="1" toLane="1" tl="joinedS_1" linkIndex="33"/>
    <connection from="-549928646#0" to="-28788362" fromLane="1" toLane="1" tl="joinedS_1" linkIndex="34"/>
    <connection from="-549928646#0" to="549928646#0" fromLane="1" toLane="1" tl="joinedS_1" linkIndex="35"/>
    <connection from="-549928648#0" to="327764059#0" fromLane="1" toLane="1" tl="cluster_27835716_28109005" linkIndex="5"/>
    <connection from="-549928648#0" to="549928651" fromLane="1" toLane="2" tl="cluster_27835716_28109005" linkIndex="6"/>
    <connection from="-549928648#0" to="549928648#0" fromLane="1" toLane="1" tl="cluster_27835716_28109005" linkIndex="7"/>
    <connection from="-550865716" to="-4734472" fromLane="1" toLane="1" tl="5318702796" linkIndex="0"/>
    <connection from="-550865716" to="550865716" fromLane="1" toLane="1" tl="5318702796" linkIndex="1"/>
    <connection from="-550873590" to="4774365#0" fromLane="1" toLane="1" tl="5319160515" linkIndex="3"/>
    <connection from="-550873590" to="4774365#0" fromLane="1" toLane="2" tl="5319160515" linkIndex="4"/>
    <connection from="-550873590" to="-462566123" fromLane="1" toLane="1" tl="5319160515" linkIndex="5"/>
    <connection from="-550873590" to="-462566123" fromLane="2" toLane="2" tl="5319160515" linkIndex="6"/>
    <connection from="161389761#0" to="161389761#1" fromLane="1" toLane="1" tl="joinedS_0" linkIndex="6"/>
    <connection from="161389761#0" to="-4902414#3" fromLane="1" toLane="1" tl="joinedS_0" linkIndex="7"/>
    <connection from="161392064#1" to="27570528#0" fromLane="1" toLane="1" tl="joinedS_4" linkIndex="11"/>
    <connection from="161392064#1" to="161392064#3" fromLane="1" toLane="1" tl="joinedS_4" linkIndex="12"/>
    <connection from="161392064#1" to="161392064#3" fromLane="2" toLane="2" tl="joinedS_4" linkIndex="13"/>
    <connection from="161392064#1" to="161392064#3" fromLane="3" toLane="3" tl="joinedS_4" linkIndex="14"/>
    <connection from="161392064#1" to="549928635" fromLane="3" toLane="3" tl="joinedS_4" linkIndex="15"/>
    <connection from="161392064#3" to="161392064#4" fromLane="1" toLane="1" tl="joinedS_4" linkIndex="0"/>
    <connection from="161392064#3" to="161392064#4" fromLane="2" toLane="2" tl="joinedS_4" linkIndex="1"/>
    <connection from="161392064#3" to="161392064#4" fromLane="3" toLane="3" tl="joinedS_4" linkIndex="2"/>
    <connection from="161392064#5" to="319453543#0" fromLane="1" toLane="1" tl="joinedS_2" linkIndex="0"/>
    <connection from="161392064#5" to="319453543#0" fromLane="1" toLane="2" tl="joinedS_2" linkIndex="1"/>
    <connection from="161392064#5" to="549345534" fromLane="1" toLane="1" tl="joinedS_2" linkIndex="2"/>
    <connection from="161392064#5" to="161392074" fromLane="2" toLane="0" tl="joinedS_2" linkIndex="3"/>
    <connection from="161392074" to="161392081" fromLane="0" toLane="0" tl="joinedS_3" linkIndex="16"/>
    <connection from="161392080" to="329013842" fromLane="0" toLane="1" tl="joinedS_3" linkIndex="8"/>
    <connection from="245553663#0" to="245553663#1" fromLane="1" toLane="1" tl="30125183" linkIndex="0"/>
    <connection from="245553663#0" to="245553663#1" fromLane="2" toLane="2" tl="30125183" linkIndex="1"/>
    <connection from="245553663#1" to="245553663#2" fromLane="1" toLane="1" tl="30124517" linkIndex="0"/>
    <connection from="245553663#1" to="245553663#2" fromLane="2" toLane="2" tl="30124517" linkIndex="1"/>
    <connection from="245553663#3" to="4902433" fromLane="1" toLane="1" tl="31944009" linkIndex="2"/>
    <connection from="245553663#3" to="245553663#4" fromLane="1" toLane="1" tl="31944009" linkIndex="3"/>
    <connection from="245553663#3" to="245553663#4" fromLane="2" toLane="2" tl="31944009" linkIndex="4"/>
    <connection from="245553663#4" to="245553663#5" fromLane="1" toLane="1" tl="1699011854" linkIndex="0"/>
    <connection from="245553663#4" to="245553663#5" fromLane="2" toLane="2" tl="1699011854" linkIndex="1"/>
    <connection from="245553663#6" to="245553663#7" fromLane="1" toLane="1" tl="joinedS_0" linkIndex="4"/>
    <connection from="245553663#6" to="245553663#7" fromLane="2" toLane="2" tl="joinedS_0" linkIndex="5"/>
    <connection from="245553663#9" to="418990606" fromLane="1" toLane="1" tl="joinedS_5" linkIndex="13"/>
    <connection from="245553663#9" to="418990606" fromLane="2" toLane="2" tl="joinedS_5" linkIndex="14"/>
    <connection from="245553663#9" to="550749977" fromLane="2" toLane="1" tl="joinedS_5" linkIndex="15"/>
    <connection from="245553663#9" to="550749977" fromLane="2" toLane="2" tl="joinedS_5" linkIndex="16"/>
    <connection from="245553663#9" to="550753287#0" fromLane="2" toLane="3" tl="joinedS_5" linkIndex="17"/>
    <connection from="249697090#1" to="249697090#2" fromLane="1" toLane="1" tl="1733690370" linkIndex="0"/>
    <connection from="249697090#1" to="249697090#2" fromLane="2" toLane="2" tl="1733690370" linkIndex="1"/>
    <connection from="28788360#2" to="549928648#0" fromLane="1" toLane="1" tl="cluster_27835716_28109005" linkIndex="8"/>
    <connection from="28788360#2" to="327764059#0" fromLane="1" toLane="2" tl="cluster_27835716_28109005" linkIndex="9"/>
    <connection from="28788360#2" to="549928651" fromLane="1" toLane="3" tl="cluster_27835716_28109005" linkIndex="10"/>
    <connection from="28788362" to="549928646#0" fromLane="1" toLane="1" tl="joinedS_1" linkIndex="30"/>
    <connection from="28788362" to="549928642#0" fromLane="1" toLane="3" tl="joinedS_1" linkIndex="31"/>
    <connection from="28788362" to="-28788362" fromLane="1" toLane="1" tl="joinedS_1" linkIndex="32"/>
    <connection from="327764059#1" to="4902394#0" fromLane="1" toLane="1" tl="joinedS_1" linkIndex="19"/>
    <connection from="327764059#1" to="161392064#0" fromLane="1" toLane="1" tl="joinedS_1" linkIndex="20"/>
    <connection from="327764059#1" to="161392064#0" fromLane="2" toLane="2" tl="joinedS_1" linkIndex="21"/>
    <connection from="327764059#1" to="161392064#0" fromLane="3" toLane="3" tl="joinedS_1" linkIndex="22"/>
    <connection from="327956372" to="327956373#0" fromLane="1" toLane="1" tl="joinedS_2" linkIndex="10"/>
    <connection from="327956372" to="327956373#0" fromLane="2" toLane="2" tl="joinedS_2" linkIndex="11"/>
    <connection from="327956372" to="327956373#0" fromLane="3" toLane="3" tl="joinedS_2" linkIndex="12"/>
    <connection from="327956372" to="327956373#0" fromLane="4" toLane="4" tl="joinedS_2" linkIndex="13"/>
    <connection from="327956374" to="549928635" fromLane="1" toLane="1" tl="joinedS_4" linkIndex="3"/>
    <connection from="327956374" to="549928635" fromLane="2" toLane="2" tl="joinedS_4" linkIndex="4"/>
    <connection from="327956374" to="549928635" fromLane="3" toLane="3" tl="joinedS_4" linkIndex="5"/>
    <connection from="327956374" to="27570528#0" fromLane="3" toLane="1" tl="joinedS_4" linkIndex="6"/>
    <connection from="327956374" to="161392064#3" fromLane="3" toLane="3" tl="joinedS_4" linkIndex="7"/>
    <connection from="401773368" to="327956372" fromLane="1" toLane="1" tl="joinedS_3" linkIndex="3"/>
    <connection from="401773368" to="327956372" fromLane="2" toLane="2" tl="joinedS_3" linkIndex="4"/>
    <connection from="401773368" to="327956372" fromLane="3" toLane="3" tl="joinedS_3" linkIndex="5"/>
    <connection from="4559005#0" to="4559005#1" fromLane="1" toLane="1" tl="joinedS_5" linkIndex="23"/>
    <connection from="4559005#0" to="4559005#1" fromLane="2" toLane="2" tl="joinedS_5" linkIndex="24"/>
    <connection from="4559005#0" to="4559084" fromLane="2" toLane="1" tl="joinedS_5" linkIndex="25"/>
    <connection from="4559005#0" to="550756710#0" fromLane="2" toLane="3" tl="joinedS_5" linkIndex="26"/>
    <connection from="4559074#1" to="4559074#2" fromLane="1" toLane="1" tl="5057481093" linkIndex="0"/>
    <connection from="4559074#1" to="4559074#2" fromLane="2" toLane="2" tl="5057481093" linkIndex="1"/>
    <connection from="4559074#1" to="4559074#2" fromLane="3" toLane="3" tl="5057481093" linkIndex="2"/>
    <connection from="4559074#1" to="4559074#2" fromLane="4" toLane="4" tl="5057481093" linkIndex="3"/>
    <connection from="4559084" to="550753287#0" fromLane="1" toLane="1" tl="joinedS_5" linkIndex="6"/>
    <connection from="4559084" to="418990606" fromLane="1" toLane="2" tl="joinedS_5" linkIndex="7"/>
    <connection from="4559084" to="418990606" fromLane="1" toLane="3" tl="joinedS_5" linkIndex="8"/>
    <connection from="4559084" to="550749977" fromLane="1" toLane="2" tl="joinedS_5" linkIndex="9"/>
    <connection from="4559087" to="4559118" fromLane="1" toLane="1" tl="joinedS_5" linkIndex="3"/>
    <connection from="4559087" to="4559118" fromLane="2" toLane="2" tl="joinedS_5" linkIndex="4"/>
    <connection from="4559087" to="4559118" fromLane="3" toLane="3" tl="joinedS_5" linkIndex="5"/>
    <connection from="462566123" to="550873590" fromLane="1" toLane="1" tl="5319160515" linkIndex="7"/>
    <connection from="462566123" to="550873590" fromLane="2" toLane="2" tl="5319160515" linkIndex="8"/>
    <connection from="462566123" to="550873590" fromLane="3" toLane="3" tl="5319160515" linkIndex="9"/>
    <connection from="4734472" to="550865716" fromLane="1" toLane="1" tl="5318702796" linkIndex="2"/>
    <connection from="4734475#0" to="4734475#1" fromLane="1" toLane="1" tl="1733690371" linkIndex="0"/>
    <connection from="4734475#0" to="4734475#1" fromLane="2" toLane="2" tl="1733690371" linkIndex="1"/>
    <connection from="4774365#1" to="-4774365#1" fromLane="2" toLane="2" tl="30517505" linkIndex="0"/>
    <connection from="4902374#3" to="4902436#0" fromLane="1" toLane="1" tl="joinedS_1" linkIndex="0"/>
    <connection from="4902374#3" to="-4902433" fromLane="1" toLane="1" tl="joinedS_1" linkIndex="1"/>
    <connection from="4902374#3" to="-549928646#1" fromLane="2" toLane="1" tl="joinedS_1" linkIndex="2"/>
    <connection from="4902374#3" to="4902416#0" fromLane="2" toLane="2" tl="joinedS_1" linkIndex="3"/>
    <connection from="4902378#1" to="549917967" fromLane="1" toLane="1" tl="joinedS_2" linkIndex="14"/>
    <connection from="4902378#1" to="549917967" fromLane="2" toLane="2" tl="joinedS_2" linkIndex="15"/>
    <connection from="4902378#1" to="549917967" fromLane="3" toLane="3" tl="joinedS_2" linkIndex="16"/>
    <connection from="4902378#1" to="549917967" fromLane="4" toLane="4" tl="joinedS_2" linkIndex="17"/>
    <connection from="4902378#1" to="549917967" fromLane="5" toLane="5" tl="joinedS_2" linkIndex="18"/>
    <connection from="4902414#3" to="161389761#1" fromLane="1" toLane="1" tl="joinedS_0" linkIndex="8"/>
    <connection from="4902414#3" to="-4902414#3" fromLane="1" toLane="1" tl="joinedS_0" linkIndex="9"/>
    <connection from="4902416#2" to="549928635" fromLane="1" toLane="1" tl="joinedS_4" linkIndex="16"/>
    <connection from="4902416#2" to="27570528#0" fromLane="1" toLane="1" tl="joinedS_4" linkIndex="17"/>
    <connection from="4902416#2" to="161392064#3" fromLane="2" toLane="3" tl="joinedS_4" linkIndex="18"/>
    <connection from="4902433" to="-549928646#1" fromLane="1" toLane="1" tl="joinedS_1" linkIndex="8"/>
    <connection from="4902433" to="4902416#0" fromLane="1" toLane="2" tl="joinedS_1" linkIndex="9"/>
    <connection from="4902433" to="4902436#0" fromLane="1" toLane="1" tl="joinedS_1" linkIndex="10"/>
    <connection from="4902433" to="-4902433" fromLane="1" toLane="1" tl="joinedS_1" linkIndex="11"/>
    <connection from="4902440#2" to="4902440#3" fromLane="1" toLane="1" tl="joinedS_0" linkIndex="3"/>
    <connection from="549345534" to="549815935" fromLane="1" toLane="1" tl="joinedS_3" linkIndex="13"/>
    <connection from="549345534" to="549815935" fromLane="2" toLane="2" tl="joinedS_3" linkIndex="14"/>
    <connection from="549345534" to="549815935" fromLane="3" toLane="3" tl="joinedS_3" linkIndex="15"/>
    <connection from="549815935" to="329013842" fromLane="1" toLane="1" tl="joinedS_3" linkIndex="9"/>
    <connection from="549815935" to="329013842" fromLane="2" toLane="2" tl="joinedS_3" linkIndex="10"/>
    <connection from="549815935" to="329013842" fromLane="3" toLane="3" tl="joinedS_3" linkIndex="11"/>
    <connection from="549815935" to="327956372" fromLane="3" toLane="4" tl="joinedS_3" linkIndex="12"/>
    <connection from="549915319" to="327956372" fromLane="0" toLane="2" tl="joinedS_3" linkIndex="6"/>
    <connection from="549915319" to="327956372" fromLane="0" toLane="3" tl="joinedS_3" linkIndex="7"/>
    <connection from="549917967" to="319453543#0" fromLane="1" toLane="2" tl="joinedS_2" linkIndex="4"/>
    <connection from="549917967" to="319453543#0" fromLane="2" toLane="3" tl="joinedS_2" linkIndex="5"/>
    <connection from="549917967" to="319453543#0" fromLane="3" toLane="4" tl="joinedS_2" linkIndex="6"/>
    <connection from="549917967" to="549345534" fromLane="4" toLane="2" tl="joinedS_2" linkIndex="7"/>
    <connection from="549917967" to="549345534" fromLane="4" toLane="3" tl="joinedS_2" linkIndex="8"/>
    <connection from="549917967" to="161392074" fromLane="5" toLane="0" tl="joinedS_2" linkIndex="9"/>
    <connection from="549928635" to="549928646#0" fromLane="1" toLane="1" tl="joinedS_1" linkIndex="26"/>
    <connection from="549928635" to="549928642#0" fromLane="1" toLane="1" tl="joinedS_1" linkIndex="27"/>
    <connection from="549928635" to="549928642#0" fromLane="2" toLane="2" tl="joinedS_1" linkIndex="28"/>
    <connection from="549928635" to="549928642#0" fromLane="3" toLane="3" tl="joinedS_1" linkIndex="29"/>
    <connection from="549928642#3" to="549928651" fromLane="1" toLane="1" tl="cluster_27835716_28109005" linkIndex="0"/>
    <connection from="549928642#3" to="549928651" fromLane="2" toLane="2" tl="cluster_27835716_28109005" linkIndex="1"/>
    <connection from="549928642#3" to="549928651" fromLane="3" toLane="3" tl="cluster_27835716_28109005" linkIndex="2"/>
    <connection from="549928642#3" to="549928648#0" fromLane="3" toLane="1" tl="cluster_27835716_28109005" linkIndex="3"/>
    <connection from="549928642#3" to="327764059#0" fromLane="3" toLane="3" tl="cluster_27835716_28109005" linkIndex="4"/>
    <connection from="549928646#1" to="4902416#0" fromLane="1" toLane="1" tl="joinedS_1" linkIndex="4"/>
    <connection from="549928646#1" to="4902436#0" fromLane="1" toLane="1" tl="joinedS_1" linkIndex="5"/>
    <connection from="549928646#1" to="-4902433" fromLane="1" toLane="1" tl="joinedS_1" linkIndex="6"/>
    <connection from="549928646#1" to="-549928646#1" fromLane="1" toLane="1" tl="joinedS_1" linkIndex="7"/>
    <connection from="549939609#0" to="549939609#1" fromLane="1" toLane="1" tl="joinedS_6" linkIndex="0"/>
    <connection from="549939609#0" to="549939609#1" fromLane="2" toLane="2" tl="joinedS_6" linkIndex="1"/>
    <connection from="549939609#0" to="549939609#1" fromLane="3" toLane="3" tl="joinedS_6" linkIndex="2"/>
    <connection from="549939609#1" to="549939609#2" fromLane="1" toLane="1" tl="317497162" linkIndex="0"/>
    <connection from="549939609#1" to="549939609#2" fromLane="2" toLane="2" tl="317497162" linkIndex="1"/>
    <connection from="549939609#1" to="549939609#2" fromLane="3" toLane="3" tl="317497162" linkIndex="2"/>
    <connection from="549939609#2" to="27570526#0" fromLane="1" toLane="1" tl="302727652" linkIndex="0"/>
    <connection from="549939609#2" to="549939609#3" fromLane="1" toLane="1" tl="302727652" linkIndex="1"/>
    <connection from="549939609#2" to="549939609#3" fromLane="2" toLane="2" tl="302727652" linkIndex="2"/>
    <connection from="549939609#2" to="549939609#3" fromLane="3" toLane="3" tl="302727652" linkIndex="3"/>
    <connection from="549939609#3" to="549928648#0" fromLane="1" toLane="1" tl="cluster_27835716_28109005" linkIndex="11"/>
    <connection from="549939609#3" to="327764059#0" fromLane="1" toLane="1" tl="cluster_27835716_28109005" linkIndex="12"/>
    <connection from="549939609#3" to="327764059#0" fromLane="2" toLane="2" tl="cluster_27835716_28109005" linkIndex="13"/>
    <connection from="549939609#3" to="327764059#0" fromLane="3" toLane="3" tl="cluster_27835716_28109005" linkIndex="14"/>
    <connection from="549939609#3" to="549928651" fromLane="3" toLane="3" tl="cluster_27835716_28109005" linkIndex="15"/>