<?xml version="1.0"?>
<!-- generated on 2018-01-09 17:34:37.137195 by $Id: randomTrips.py 23999 2017-04-21 09:04:47Z behrisch $
  options: <doubleminus>seed 42 <doubleminus>fringe-factor 5 <doubleminus>prefix tru <doubleminus>vehicle-class truck -n /media/jefferson/Dados/workspace/gtracker/vanet/sp/sp.net.xml -r /media/jefferson/Dados/workspace/gtracker/vanet/sp/sp.truck.rou.xml -p 7 -e 3600 -o /media/jefferson/Dados/workspace/gtracker/vanet/sp/sp.truck.trips.xml
-->
<routes xmlns:xsi="http://www.w3.org/2001/XMLSchema-instance" xsi:noNamespaceSchemaLocation="http://sumo.dlr.de/xsd/routes_file.xsd">
    <vType id="truck" vClass="truck" />
    <trip id="tru0" depart="0.00" from="327764058" to="-221893225" type="truck"/>
    <trip id="tru1" depart="7.00" from="-4902428" to="-4902453" type="truck"/>
    <trip id="tru2" depart="14.00" from="462566123" to="4734490" type="truck"/>
    <trip id="tru3" depart="21.00" from="548651990#0" to="-28788362" type="truck"/>
    <trip id="tru4" depart="28.00" from="161392075#0" to="-221893257" type="truck"/>
    <trip id="tru5" depart="35.00" from="-4774404" to="28788368#0" type="truck"/>
    <trip id="tru6" depart="42.00" from="-221893217#0" to="-4902418#4" type="truck"/>
    <trip id="tru7" depart="49.00" from="329013842" to="319453543#4" type="truck"/>
    <trip id="tru8" depart="56.00" from="-4774404" to="386114209" type="truck"/>
    <trip id="tru9" depart="63.00" from="4902394#3" to="-162043157#1" type="truck"/>
    <trip id="tru10" depart="70.00" from="4902394#1" to="4774365#1" type="truck"/>
    <trip id="tru11" depart="77.00" from="-549928646#1" to="-4734472" type="truck"/>
    <trip id="tru12" depart="84.00" from="550753287#3" to="161392081" type="truck"/>
    <trip id="tru13" depart="91.00" from="-27840841#0" to="-28788370#0" type="truck"/>
    <trip id="tru14" depart="98.00" from="4902441" to="386278913" type="truck"/>
    <trip id="tru15" depart="105.00" from="4902394#2" to="4877455" type="truck"/>
    <trip id="tru16" depart="112.00" from="27570527#0" to="550867442#2" type="truck"/>
    <trip id="tru17" depart="119.00" from="-8154723" to="319453545#1" type="truck"/>
    <trip id="tru18" depart="126.00" from="4902421" to="39368524#2" type="truck"/>
    <trip id="tru19" depart="133.00" from="4902453" to="329013842" type="truck"/>
    <trip id="tru20" depart="140.00" from="4559007" to="-27467656" type="truck"/>
    <trip id="tru21" depart="147.00" from="-4877450" to="161389758" type="truck"/>
    <trip id="tru22" depart="154.00" from="-27840840#1" to="-518474575" type="truck"/>
    <trip id="tru23" depart="161.00" from="-28788361#0" to="15968284" type="truck"/>
    <trip id="tru24" depart="168.00" from="327757314" to="221893217#3" type="truck"/>
    <trip id="tru25" depart="175.00" from="-550867442#2" to="-4902441" type="truck"/>
    <trip id="tru26" depart="182.00" from="-4902418#1" to="550749977" type="truck"/>
    <trip id="tru27" depart="189.00" from="327956374" to="39368522#1" type="truck"/>
    <trip id="tru28" depart="196.00" from="-386278913" to="4877455" type="truck"/>
    <trip id="tru29" depart="203.00" from="-386114209" to="245234799#1" type="truck"/>
    <trip id="tru30" depart="210.00" from="96097829#0" to="4559005#0" type="truck"/>
    <trip id="tru31" depart="217.00" from="27840838#1" to="473691589" type="truck"/>
    <trip id="tru32" depart="224.00" from="4902440#2" to="4902418#3" type="truck"/>
    <trip id="tru33" depart="231.00" from="-4877450" to="-221893257" type="truck"/>
    <trip id="tru34" depart="238.00" from="-518473677" to="143331549#0" type="truck"/>
    <trip id="tru35" depart="245.00" from="-4774365#1" to="550753287#2" type="truck"/>
    <trip id="tru36" depart="252.00" from="518473679" to="161392068" type="truck"/>
    <trip id="tru37" depart="259.00" from="344144147#0" to="245553663#4" type="truck"/>
    <trip id="tru38" depart="266.00" from="549928648#1" to="27803780#0" type="truck"/>
    <trip id="tru39" depart="273.00" from="-4902414#3" to="-549928648#1" type="truck"/>
    <trip id="tru40" depart="280.00" from="27840840#1" to="-8154721#0" type="truck"/>
    <trip id="tru41" depart="287.00" from="28788368#1" to="550674386" type="truck"/>
    <trip id="tru42" depart="294.00" from="161392059#0" to="-4902453" type="truck"/>
    <trip id="tru43" depart="301.00" from="96097829#2" to="28788370#1" type="truck"/>
    <trip id="tru44" depart="308.00" from="-27840840#4" to="-27467656" type="truck"/>
    <trip id="tru45" depart="315.00" from="-28788365#2" to="4328546#2" type="truck"/>
    <trip id="tru46" depart="322.00" from="4902374#0" to="249697090#2" type="truck"/>
    <trip id="tru47" depart="329.00" from="-27570528#4" to="245234799#2" type="truck"/>
    <trip id="tru48" depart="336.00" from="96097829#1" to="28885055#1" type="truck"/>
    <trip id="tru49" depart="343.00" from="550860119#2" to="518474788" type="truck"/>
    <trip id="tru50" depart="350.00" from="-162043156" to="4877450" type="truck"/>
    <trip id="tru51" depart="357.00" from="39368523" to="319447428#3" type="truck"/>
    <trip id="tru52" depart="364.00" from="-4902418#1" to="4559005#1" type="truck"/>
    <trip id="tru53" depart="371.00" from="-28788366" to="27490680" type="truck"/>
    <trip id="tru54" depart="378.00" from="221893257" to="550756710#0" type="truck"/>
    <trip id="tru55" depart="385.00" from="518473675" to="-8154721#1" type="truck"/>
    <trip id="tru56" depart="392.00" from="245553663#5" to="-4902394#1" type="truck"/>
    <trip id="tru57" depart="399.00" from="549928648#0" to="549928635" type="truck"/>
    <trip id="tru58" depart="406.00" from="-490522132" to="4523238" type="truck"/>
    <trip id="tru59" depart="413.00" from="28885070#1" to="-462566123" type="truck"/>
    <trip id="tru60" depart="420.00" from="473684641#0" to="319453543#0" type="truck"/>
    <trip id="tru61" depart="427.00" from="475330829" to="28885070#1" type="truck"/>
    <trip id="tru62" depart="434.00" from="-143331549#0" to="161392072" type="truck"/>
    <trip id="tru63" depart="441.00" from="-162154108#1" to="550735550" type="truck"/>
    <trip id="tru64" depart="448.00" from="518473680" to="518473676" type="truck"/>
    <trip id="tru65" depart="455.00" from="-518473674" to="-27570527#3" type="truck"/>
    <trip id="tru66" depart="462.00" from="518473680" to="550753287#5" type="truck"/>
    <trip id="tru67" depart="469.00" from="-27840840#4" to="27840841#1" type="truck"/>
    <trip id="tru68" depart="476.00" from="-27803780#0" to="4902394#7" type="truck"/>
    <trip id="tru69" depart="483.00" from="473684642#1" to="-341224416" type="truck"/>
    <trip id="tru70" depart="490.00" from="245234799#1" to="319453545#0" type="truck"/>
    <trip id="tru71" depart="497.00" from="-4902414#3" to="549928642#1" type="truck"/>
    <trip id="tru72" depart="504.00" from="161392075#1" to="-4902441" type="truck"/>
    <trip id="tru73" depart="511.00" from="27570527#2" to="4877455" type="truck"/>
    <trip id="tru74" depart="518.00" from="-473691589" to="161392066" type="truck"/>
    <trip id="tru75" depart="525.00" from="96097829#0" to="4559074#3" type="truck"/>
    <trip id="tru76" depart="532.00" from="162154108#0" to="28885040#2" type="truck"/>
    <trip id="tru77" depart="539.00" from="-28885040#0" to="-4902453" type="truck"/>
    <trip id="tru78" depart="546.00" from="-548651990#1" to="386114209" type="truck"/>
    <trip id="tru79" depart="553.00" from="-4877455" to="-4902453" type="truck"/>
    <trip id="tru80" depart="560.00" from="-27803780#2" to="438155977#1" type="truck"/>
    <trip id="tru81" depart="567.00" from="-4877450" to="550712032#1" type="truck"/>
    <trip id="tru82" depart="574.00" from="4902453" to="-27840836" type="truck"/>
    <trip id="tru83" depart="581.00" from="-4902377#0" to="4734475#3" type="truck"/>
    <trip id="tru84" depart="588.00" from="-4774365#1" to="-39368522#0" type="truck"/>
    <trip id="tru85" depart="595.00" from="550712036#0" to="327956372" type="truck"/>
    <trip id="tru86" depart="602.00" from="229481708#2" to="4902433" type="truck"/>
    <trip id="tru87" depart="609.00" from="4902394#2" to="-4902414#3" type="truck"/>
    <trip id="tru88" depart="616.00" from="-27840841#1" to="249870999" type="truck"/>
    <trip id="tru89" depart="623.00" from="161392075#1" to="27840838#1" type="truck"/>
    <trip id="tru90" depart="630.00" from="462564634" to="4734487" type="truck"/>
    <trip id="tru91" depart="637.00" from="8154721#3" to="-28788370#1" type="truck"/>
    <trip id="tru92" depart="644.00" from="161392064#0" to="162043157#0" type="truck"/>
    <trip id="tru93" depart="651.00" from="4902453" to="-550712033" type="truck"/>
    <trip id="tru94" depart="658.00" from="-4734472" to="27570528#1" type="truck"/>
    <trip id="tru95" depart="665.00" from="161392075#0" to="15968349" type="truck"/>
    <trip id="tru96" depart="672.00" from="-4902394#5" to="550732345" type="truck"/>
    <trip id="tru97" depart="679.00" from="179109642#0" to="518474788" type="truck"/>
    <trip id="tru98" depart="686.00" from="27803780#0" to="-27467656" type="truck"/>
    <trip id="tru99" depart="693.00" from="96097834" to="518473676" type="truck"/>
    <trip id="tru100" depart="700.00" from="550860118#3" to="550735550" type="truck"/>
    <trip id="tru101" depart="707.00" from="4902441" to="-473691590#0" type="truck"/>
    <trip id="tru102" depart="714.00" from="245546867" to="-4902444" type="truck"/>
    <trip id="tru103" depart="721.00" from="161392062" to="-27570527#4" type="truck"/>
    <trip id="tru104" depart="728.00" from="-8154723" to="8154721#3" type="truck"/>
    <trip id="tru105" depart="735.00" from="-4902418#0" to="4902431" type="truck"/>
    <trip id="tru106" depart="742.00" from="221893257" to="249697090#2" type="truck"/>
    <trip id="tru107" depart="749.00" from="550753287#4" to="96097794" type="truck"/>
    <trip id="tru108" depart="756.00" from="27840838#0" to="4877450" type="truck"/>
    <trip id="tru109" depart="763.00" from="-341224416" to="161389762-AddedOnRampEdge" type="truck"/>
    <trip id="tru110" depart="770.00" from="550860118#3" to="340955662" type="truck"/>
    <trip id="tru111" depart="777.00" from="27570527#4" to="4902394#0" type="truck"/>
    <trip id="tru112" depart="784.00" from="-27570528#1" to="380438949#1" type="truck"/>
    <trip id="tru113" depart="791.00" from="245553663#7" to="518473679" type="truck"/>
    <trip id="tru114" depart="798.00" from="-386114209" to="550860118#2" type="truck"/>
    <trip id="tru115" depart="805.00" from="-27840840#1" to="-4902399" type="truck"/>
    <trip id="tru116" depart="812.00" from="28885040#2" to="4734488" type="truck"/>
    <trip id="tru117" depart="819.00" from="-4877455" to="-28885070#1" type="truck"/>
    <trip id="tru118" depart="826.00" from="548651990#0" to="-549928648#1" type="truck"/>
    <trip id="tru119" depart="833.00" from="28885040#1" to="401773368" type="truck"/>
    <trip id="tru120" depart="840.00" from="161392073#0" to="380438949#0" type="truck"/>
    <trip id="tru121" depart="847.00" from="249697090#1" to="550747490" type="truck"/>
    <trip id="tru122" depart="854.00" from="-473691590#1" to="4877450" type="truck"/>
    <trip id="tru123" depart="861.00" from="-4902377#2" to="245553663#4" type="truck"/>
    <trip id="tru124" depart="868.00" from="39368522#0" to="161392059#0" type="truck"/>
    <trip id="tru125" depart="875.00" from="-518473677" to="4902394#3" type="truck"/>
    <trip id="tru126" depart="882.00" from="-27840836" to="27570528#4" type="truck"/>
    <trip id="tru127" depart="889.00" from="96097829#2" to="96097829#1" type="truck"/>
    <trip id="tru128" depart="896.00" from="-27840836" to="-4902444" type="truck"/>
    <trip id="tru129" depart="903.00" from="-4902418#0" to="550745968" type="truck"/>
    <trip id="tru130" depart="910.00" from="518473680" to="549928648#0" type="truck"/>
    <trip id="tru131" depart="917.00" from="-550867442#2" to="-473684642#1" type="truck"/>
    <trip id="tru132" depart="924.00" from="4902431" to="4774404" type="truck"/>
    <trip id="tru133" depart="931.00" from="319447428#0" to="86936182" type="truck"/>
    <trip id="tru134" depart="938.00" from="344144147#0" to="-162154108#0" type="truck"/>
    <trip id="tru135" depart="945.00" from="4902414#1" to="161389765" type="truck"/>
    <trip id="tru136" depart="952.00" from="380438949#0" to="550753287#0" type="truck"/>
    <trip id="tru137" depart="959.00" from="-28885040#5" to="-28885070#0" type="truck"/>
    <trip id="tru138" depart="966.00" from="-28788365#0" to="323823408" type="truck"/>
    <trip id="tru139" depart="973.00" from="-4902418#4" to="386278913" type="truck"/>
    <trip id="tru140" depart="980.00" from="4559084" to="-4902436#0" type="truck"/>
    <trip id="tru141" depart="987.00" from="327754983" to="-8154721#1" type="truck"/>
    <trip id="tru142" depart="994.00" from="245553663#0" to="550712032#1" type="truck"/>
    <trip id="tru143" depart="1001.00" from="4902441" to="-28788365#2" type="truck"/>
    <trip id="tru144" depart="1008.00" from="161392075#1" to="143331549#2" type="truck"/>
    <trip id="tru145" depart="1015.00" from="-143331549#2" to="4902416#0" type="truck"/>
    <trip id="tru146" depart="1022.00" from="327764057#0" to="-8154721#0" type="truck"/>
    <trip id="tru147" depart="1029.00" from="4734475#0" to="319453545#1" type="truck"/>
    <trip id="tru148" depart="1036.00" from="161392080" to="-162154108#0" type="truck"/>
    <trip id="tru149" depart="1043.00" from="-27840838#1" to="549928648#2" type="truck"/>
    <trip id="tru150" depart="1050.00" from="549928642#0" to="319453543#5" type="truck"/>
    <trip id="tru151" depart="1057.00" from="4902431" to="380438949#0" type="truck"/>
    <trip id="tru152" depart="1064.00" from="-327764057#2" to="-340955664" type="truck"/>
    <trip id="tru153" depart="1071.00" from="-518473674" to="550674386" type="truck"/>
    <trip id="tru154" depart="1078.00" from="4902374#3" to="518474788" type="truck"/>
    <trip id="tru155" depart="1085.00" from="549915319" to="-4902441" type="truck"/>
    <trip id="tru156" depart="1092.00" from="-4902394#5" to="-28885040#0" type="truck"/>
    <trip id="tru157" depart="1099.00" from="4774365#0" to="549928648#3" type="truck"/>
    <trip id="tru158" depart="1106.00" from="161392064#3" to="401773368" type="truck"/>
    <trip id="tru159" depart="1113.00" from="-340955664" to="550735550" type="truck"/>
    <trip id="tru160" depart="1120.00" from="4902453" to="550867442#2" type="truck"/>
    <trip id="tru161" depart="1127.00" from="4902394#4" to="549928648#1" type="truck"/>
    <trip id="tru162" depart="1134.00" from="-179109642#1" to="4902374#1" type="truck"/>
    <trip id="tru163" depart="1141.00" from="-518474788" to="550735550" type="truck"/>
    <trip id="tru164" depart="1148.00" from="4902391" to="549345534" type="truck"/>
    <trip id="tru165" depart="1155.00" from="4902394#4" to="-8154723" type="truck"/>
    <trip id="tru166" depart="1162.00" from="4877453" to="-28885040#4" type="truck"/>
    <trip id="tru167" depart="1169.00" from="518473672" to="518474788" type="truck"/>
    <trip id="tru168" depart="1176.00" from="-4877450" to="511815819" type="truck"/>
    <trip id="tru169" depart="1183.00" from="221893257" to="161392064#1" type="truck"/>
    <trip id="tru170" depart="1190.00" from="4902374#3" to="-511815820" type="truck"/>
    <trip id="tru171" depart="1197.00" from="-179109642#1" to="-4902418#0" type="truck"/>
    <trip id="tru172" depart="1204.00" from="-518473679" to="549345534" type="truck"/>
    <trip id="tru173" depart="1211.00" from="550860118#2" to="15968349" type="truck"/>
    <trip id="tru174" depart="1218.00" from="327764059#0" to="245553663#7" type="truck"/>
    <trip id="tru175" depart="1225.00" from="8154721#1" to="319447428#2" type="truck"/>
    <trip id="tru176" depart="1232.00" from="550712036#2" to="-28885070#0" type="truck"/>
    <trip id="tru177" depart="1239.00" from="550860119#0" to="-4902394#1" type="truck"/>
    <trip id="tru178" depart="1246.00" from="550757841" to="-8154721#2" type="truck"/>
    <trip id="tru179" depart="1253.00" from="-28788365#1" to="249871000" type="truck"/>
    <trip id="tru180" depart="1260.00" from="4559381" to="161392067" type="truck"/>
    <trip id="tru181" depart="1267.00" from="28885070#0" to="28788371#1" type="truck"/>
    <trip id="tru182" depart="1274.00" from="161389756#0" to="327956374" type="truck"/>
    <trip id="tru183" depart="1281.00" from="-4902394#7" to="4774404" type="truck"/>
    <trip id="tru184" depart="1288.00" from="-143331549#1" to="550735550" type="truck"/>
    <trip id="tru185" depart="1295.00" from="27570527#1" to="4877450" type="truck"/>
    <trip id="tru186" depart="1302.00" from="4734475#0" to="4734476#0" type="truck"/>
    <trip id="tru187" depart="1309.00" from="-550867442#1" to="-27840836" type="truck"/>
    <trip id="tru188" depart="1316.00" from="380438949#1" to="161392075#1" type="truck"/>
    <trip id="tru189" depart="1323.00" from="-518473677" to="518473678" type="truck"/>
    <trip id="tru190" depart="1330.00" from="4559087" to="161392059#0" type="truck"/>
    <trip id="tru191" depart="1337.00" from="-518473674" to="247833369#1" type="truck"/>
    <trip id="tru192" depart="1344.00" from="161392064#0" to="161389762-AddedOnRampEdge" type="truck"/>
    <trip id="tru193" depart="1351.00" from="-28885040#4" to="249697090#2" type="truck"/>
    <trip id="tru194" depart="1358.00" from="550725735#0" to="4734490" type="truck"/>
    <trip id="tru195" depart="1365.00" from="549928642#0" to="39368524#0" type="truck"/>
    <trip id="tru196" depart="1372.00" from="-511815819" to="319453543#6" type="truck"/>
    <trip id="tru197" depart="1379.00" from="-143331549#0" to="161389756#0" type="truck"/>
    <trip id="tru198" depart="1386.00" from="161392081" to="340955664" type="truck"/>
    <trip id="tru199" depart="1393.00" from="344144147#0" to="27840838#0" type="truck"/>
    <trip id="tru200" depart="1400.00" from="179109642#0" to="-4902444" type="truck"/>
    <trip id="tru201" depart="1407.00" from="245234799#0" to="550674386" type="truck"/>
    <trip id="tru202" depart="1414.00" from="4902374#3" to="-473691594" type="truck"/>
    <trip id="tru203" depart="1421.00" from="-27840840#4" to="28885040#0" type="truck"/>
    <trip id="tru204" depart="1428.00" from="323823408" to="161392080" type="truck"/>
    <trip id="tru205" depart="1435.00" from="4902414#2" to="4902394#2" type="truck"/>
    <trip id="tru206" depart="1442.00" from="39368522#0" to="-4902453" type="truck"/>
    <trip id="tru207" depart="1449.00" from="-473691589" to="-221893225" type="truck"/>
    <trip id="tru208" depart="1456.00" from="-4902394#2" to="27840840#4" type="truck"/>
    <trip id="tru209" depart="1463.00" from="4902441" to="-27840838#1" type="truck"/>
    <trip id="tru210" depart="1470.00" from="161392069#1" to="438155977#1" type="truck"/>
    <trip id="tru211" depart="1477.00" from="-473691589" to="4774365#1" type="truck"/>
    <trip id="tru212" depart="1484.00" from="245553663#1" to="-549928646#1" type="truck"/>
    <trip id="tru213" depart="1491.00" from="344144147#0" to="-162043157#0" type="truck"/>
    <trip id="tru214" depart="1498.00" from="4734475#2" to="4902416#0" type="truck"/>
    <trip id="tru215" depart="1505.00" from="-28788365#0" to="249697090#2" type="truck"/>
    <trip id="tru216" depart="1512.00" from="-386278913" to="550860118#0" type="truck"/>
    <trip id="tru217" depart="1519.00" from="247833371#1" to="-27467656" type="truck"/>
    <trip id="tru218" depart="1526.00" from="-4902394#5" to="518473678" type="truck"/>
    <trip id="tru219" depart="1533.00" from="221893257" to="4902451#2" type="truck"/>
    <trip id="tru220" depart="1540.00" from="39368522#0" to="86936182" type="truck"/>
    <trip id="tru221" depart="1547.00" from="28885040#2" to="550753287#5" type="truck"/>
    <trip id="tru222" depart="1554.00" from="548651990#0" to="39368522#5" type="truck"/>
    <trip id="tru223" depart="1561.00" from="4559087" to="28788368#0" type="truck"/>
    <trip id="tru224" depart="1568.00" from="4902421" to="319453543#6" type="truck"/>
    <trip id="tru225" depart="1575.00" from="549815935" to="4902378#1" type="truck"/>
    <trip id="tru226" depart="1582.00" from="245234799#1" to="-550867442#1" type="truck"/>
    <trip id="tru227" depart="1589.00" from="-4902394#3" to="438155977#1-AddedOnRampEdge" type="truck"/>
    <trip id="tru228" depart="1596.00" from="473684642#0" to="28885040#4" type="truck"/>
    <trip id="tru229" depart="1603.00" from="319453543#6" to="143331549#2" type="truck"/>
    <trip id="tru230" depart="1610.00" from="-27840838#2" to="161389756#0" type="truck"/>
    <trip id="tru231" depart="1617.00" from="-4902418#4" to="161392068" type="truck"/>
    <trip id="tru232" depart="1624.00" from="27570527#2" to="-39368522#2" type="truck"/>
    <trip id="tru233" depart="1631.00" from="-4877455" to="475330829" type="truck"/>
    <trip id="tru234" depart="1638.00" from="4559074#0" to="-27570528#3" type="truck"/>
    <trip id="tru235" depart="1645.00" from="161392064#4" to="319453543#2" type="truck"/>
    <trip id="tru236" depart="1652.00" from="161392070" to="-4902441" type="truck"/>
    <trip id="tru237" depart="1659.00" from="161392074" to="550712032#1" type="truck"/>
    <trip id="tru238" depart="1666.00" from="28788368#1" to="4774365#0" type="truck"/>
    <trip id="tru239" depart="1673.00" from="4902451#0" to="4902408" type="truck"/>
    <trip id="tru240" depart="1680.00" from="143331549#0" to="-162043157#1" type="truck"/>
    <trip id="tru241" depart="1687.00" from="-550735550" to="4902394#4" type="truck"/>
    <trip id="tru242" depart="1694.00" from="4902444" to="550756710#0" type="truck"/>
    <trip id="tru243" depart="1701.00" from="161392073#0" to="4902394#0" type="truck"/>
    <trip id="tru244" depart="1708.00" from="27570528#1" to="386278913" type="truck"/>
    <trip id="tru245" depart="1715.00" from="-4774404" to="-4902453" type="truck"/>
    <trip id="tru246" depart="1722.00" from="162154108#0" to="-221893257" type="truck"/>
    <trip id="tru247" depart="1729.00" from="-518474788" to="473684641#1" type="truck"/>
    <trip id="tru248" depart="1736.00" from="161392064#1" to="-473684643" type="truck"/>
    <trip id="tru249" depart="1743.00" from="221893285#0" to="-340955664" type="truck"/>
    <trip id="tru250" depart="1750.00" from="319453543#3" to="-221893257" type="truck"/>
    <trip id="tru251" depart="1757.00" from="161389762" to="327764057#2" type="truck"/>
    <trip id="tru252" depart="1764.00" from="-221893217#0" to="4559005#2" type="truck"/>
    <trip id="tru253" depart="1771.00" from="-28885055#0" to="27803780#2" type="truck"/>
    <trip id="tru254" depart="1778.00" from="-27570527#2" to="245234799#0" type="truck"/>
    <trip id="tru255" depart="1785.00" from="-4774365#1" to="161392074" type="truck"/>
    <trip id="tru256" depart="1792.00" from="4734490" to="245234799#0" type="truck"/>
    <trip id="tru257" depart="1799.00" from="4734475#3" to="518473676" type="truck"/>
    <trip id="tru258" depart="1806.00" from="-4902394#7" to="-27840841#0" type="truck"/>
    <trip id="tru259" depart="1813.00" from="-162154108#1" to="319453543#0" type="truck"/>
    <trip id="tru260" depart="1820.00" from="96097834" to="162154113" type="truck"/>
    <trip id="tru261" depart="1827.00" from="329013842" to="4902426" type="truck"/>
    <trip id="tru262" depart="1834.00" from="340955662" to="4902394#4" type="truck"/>
    <trip id="tru263" depart="1841.00" from="550749977" to="-4902426" type="truck"/>
    <trip id="tru264" depart="1848.00" from="-162154108#1" to="-462566123" type="truck"/>
    <trip id="tru265" depart="1855.00" from="-28885040#3" to="4734475#4" type="truck"/>
    <trip id="tru266" depart="1862.00" from="27840840#2" to="-4902451#1" type="truck"/>
    <trip id="tru267" depart="1869.00" from="4523238" to="4902414#1" type="truck"/>
    <trip id="tru268" depart="1876.00" from="-386278897" to="386278913" type="truck"/>
    <trip id="tru269" depart="1883.00" from="4734475#0" to="-28885070#0" type="truck"/>
    <trip id="tru270" depart="1890.00" from="4902414#3" to="550860119#2" type="truck"/>
    <trip id="tru271" depart="1897.00" from="-28788365#1" to="-221893257" type="truck"/>
    <trip id="tru272" depart="1904.00" from="-518473675" to="4734490" type="truck"/>
    <trip id="tru273" depart="1911.00" from="550753287#4" to="245553663#5" type="truck"/>
    <trip id="tru274" depart="1918.00" from="4559074#6" to="-27840840#0" type="truck"/>
    <trip id="tru275" depart="1925.00" from="418990606" to="4328546#2" type="truck"/>
    <trip id="tru276" depart="1932.00" from="-28788361#1" to="4902416#2" type="truck"/>
    <trip id="tru277" depart="1939.00" from="4902441" to="386278897" type="truck"/>
    <trip id="tru278" depart="1946.00" from="-28885040#0" to="8154721#2" type="truck"/>
    <trip id="tru279" depart="1953.00" from="4806304#0" to="162154108#1" type="truck"/>
    <trip id="tru280" depart="1960.00" from="161392080" to="221893217#4" type="truck"/>
    <trip id="tru281" depart="1967.00" from="245553663#9" to="162154108#1" type="truck"/>
    <trip id="tru282" depart="1974.00" from="4902441" to="518473673" type="truck"/>
    <trip id="tru283" depart="1981.00" from="-28788362" to="550860118#2" type="truck"/>
    <trip id="tru284" depart="1988.00" from="327757314" to="518473674" type="truck"/>
    <trip id="tru285" depart="1995.00" from="4559074#1" to="27490680" type="truck"/>
    <trip id="tru286" depart="2002.00" from="462566123" to="550860119#2" type="truck"/>
    <trip id="tru287" depart="2009.00" from="-4902418#3" to="4902474" type="truck"/>
    <trip id="tru288" depart="2016.00" from="27570527#1" to="27840841#1" type="truck"/>
    <trip id="tru289" depart="2023.00" from="162154108#0" to="4877455" type="truck"/>
    <trip id="tru290" depart="2030.00" from="-4902418#2" to="518473678" type="truck"/>
    <trip id="tru291" depart="2037.00" from="4902426" to="-28788362" type="truck"/>
    <trip id="tru292" depart="2044.00" from="518473680" to="-549928646#1" type="truck"/>
    <trip id="tru293" depart="2051.00" from="221893285#0" to="39368522#2" type="truck"/>
    <trip id="tru294" depart="2058.00" from="-8154723" to="-221893257" type="truck"/>
    <trip id="tru295" depart="2065.00" from="4902441" to="-4902394#4" type="truck"/>
    <trip id="tru296" depart="2072.00" from="-4774365#1" to="4902451#0" type="truck"/>
    <trip id="tru297" depart="2079.00" from="-549928646#1" to="549928648#0" type="truck"/>
    <trip id="tru298" depart="2086.00" from="4559005#1" to="143331549#2" type="truck"/>
    <trip id="tru299" depart="2093.00" from="-143331549#2" to="550753287#5" type="truck"/>
    <trip id="tru300" depart="2100.00" from="-27840840#4" to="4877450" type="truck"/>
    <trip id="tru301" depart="2107.00" from="245553663#0" to="4902394#7" type="truck"/>
    <trip id="tru302" depart="2114.00" from="418990606" to="4559074#0" type="truck"/>
    <trip id="tru303" depart="2121.00" from="245553663#0" to="4902440#3" type="truck"/>
    <trip id="tru304" depart="2128.00" from="-27840841#1" to="-4902453" type="truck"/>
    <trip id="tru305" depart="2135.00" from="4328546#0" to="161392064#3" type="truck"/>
    <trip id="tru306" depart="2142.00" from="28788366" to="27840840#3" type="truck"/>
    <trip id="tru307" depart="2149.00" from="27467656" to="249697090#2" type="truck"/>
    <trip id="tru308" depart="2156.00" from="4734475#0" to="161392075#1" type="truck"/>
    <trip id="tru309" depart="2163.00" from="4559005#2" to="143331549#2" type="truck"/>
    <trip id="tru310" depart="2170.00" from="-4902394#7" to="-28885070#1" type="truck"/>
    <trip id="tru311" depart="2177.00" from="-473684642#0" to="-28885070#1" type="truck"/>
    <trip id="tru312" depart="2184.00" from="27570526#1" to="4902394#7" type="truck"/>
    <trip id="tru313" depart="2191.00" from="-39368523" to="-4902451#0" type="truck"/>
    <trip id="tru314" depart="2198.00" from="245546865" to="4877455" type="truck"/>
    <trip id="tru315" depart="2205.00" from="550873590" to="28885040#5" type="truck"/>
    <trip id="tru316" depart="2212.00" from="-4902451#0" to="-28788371#0" type="truck"/>
    <trip id="tru317" depart="2219.00" from="-473684642#1" to="-511815820" type="truck"/>
    <trip id="tru318" depart="2226.00" from="-39368522#1" to="-162154108#0" type="truck"/>
    <trip id="tru319" depart="2233.00" from="27570526#0" to="143331549#2" type="truck"/>
    <trip id="tru320" depart="2240.00" from="550867442#0" to="323823408" type="truck"/>
    <trip id="tru321" depart="2247.00" from="438155977#1-AddedOnRampEdge" to="-340955662" type="truck"/>
    <trip id="tru322" depart="2254.00" from="511815819" to="28788360#1" type="truck"/>
    <trip id="tru323" depart="2261.00" from="518473672" to="327956373#1" type="truck"/>
    <trip id="tru324" depart="2268.00" from="221893285#1" to="27570527#1" type="truck"/>
    <trip id="tru325" depart="2275.00" from="-39368523" to="-27490680" type="truck"/>
    <trip id="tru326" depart="2282.00" from="550725735#0" to="27840840#4" type="truck"/>
    <trip id="tru327" depart="2289.00" from="4902416#2" to="245553663#8" type="truck"/>
    <trip id="tru328" depart="2296.00" from="-27840838#0" to="438155977#1" type="truck"/>
    <trip id="tru329" depart="2303.00" from="-27570527#4" to="-462566123" type="truck"/>
    <trip id="tru330" depart="2310.00" from="27840840#2" to="161392064#0" type="truck"/>
    <trip id="tru331" depart="2317.00" from="96097829#0" to="-28885070#0" type="truck"/>
    <trip id="tru332" depart="2324.00" from="473684642#0" to="386278913" type="truck"/>
    <trip id="tru333" depart="2331.00" from="4902373" to="-4902453" type="truck"/>
    <trip id="tru334" depart="2338.00" from="249697090#1" to="27570528#3" type="truck"/>
    <trip id="tru335" depart="2345.00" from="179109642#0" to="518474788" type="truck"/>
    <trip id="tru336" depart="2352.00" from="96097829#0" to="161392064#1" type="truck"/>