<?xml version="1.0"?>
<!-- generated on 2018-01-15 22:06:26.807164 by $Id: randomTrips.py 23999 2017-04-21 09:04:47Z behrisch $
  options: create
-->
<routes xmlns:xsi="http://www.w3.org/2001/XMLSchema-instance" xsi:noNamespaceSchemaLocation="http://sumo.dlr.de/xsd/routes_file.xsd">
    <vType id="truck" vClass="truck" />
    <trip id="tru0" depart="0.00" from="27558694" to="-143331551#4" type="truck"/>
    <trip id="tru1" depart="7.00" from="109496226#2" to="-157423551#0" type="truck"/>
    <trip id="tru2" depart="14.00" from="-345332043#1" to="245234796#2" type="truck"/>
    <trip id="tru3" depart="21.00" from="-156251563" to="-28885076#0" type="truck"/>
    <trip id="tru4" depart="28.00" from="-351479491" to="27558789#2" type="truck"/>
    <trip id="tru5" depart="35.00" from="39368522#2" to="-122735160#0" type="truck"/>
    <trip id="tru6" depart="42.00" from="-4770196#0" to="-27571744" type="truck"/>
    <trip id="tru7" depart="49.00" from="-229481708#0" to="-244074953#1" type="truck"/>
    <trip id="tru8" depart="56.00" from="4629513#0" to="27571482" type="truck"/>
    <trip id="tru9" depart="63.00" from="386278945" to="386113080" type="truck"/>
    <trip id="tru10" depart="70.00" from="221893285#0" to="549941138#0" type="truck"/>
    <trip id="tru11" depart="77.00" from="-4902450#4" to="252482715#3" type="truck"/>
    <trip id="tru12" depart="84.00" from="426799412#3" to="27571850#3" type="truck"/>
    <trip id="tru13" depart="91.00" from="47221489" to="27490676" type="truck"/>
    <trip id="tru14" depart="98.00" from="27951305#3" to="-157483950#0" type="truck"/>
    <trip id="tru15" depart="105.00" from="-386113080" to="-473691601#0" type="truck"/>
    <trip id="tru16" depart="112.00" from="-221893235" to="-386114193" type="truck"/>
    <trip id="tru17" depart="119.00" from="-245234796#0" to="-4727809#5" type="truck"/>
    <trip id="tru18" depart="126.00" from="27490670#1" to="10787528" type="truck"/>
    <trip id="tru19" depart="133.00" from="-386114781" to="501500253" type="truck"/>
    <trip id="tru20" depart="140.00" from="-27840841#0" to="386113080" type="truck"/>
    <trip id="tru21" depart="147.00" from="-27572173#0" to="122735168#1" type="truck"/>
    <trip id="tru22" depart="154.00" from="550860118#0" to="27951260" type="truck"/>
    <trip id="tru23" depart="161.00" from="245234770#3" to="28885040#1" type="truck"/>
    <trip id="tru24" depart="168.00" from="4559084" to="386223027" type="truck"/>
    <trip id="tru25" depart="175.00" from="-345049503" to="511817674" type="truck"/>
    <trip id="tru26" depart="182.00" from="27570527#3" to="143331551#7" type="truck"/>
    <trip id="tru27" depart="189.00" from="4806304#0" to="183017632" type="truck"/>
    <trip id="tru28" depart="196.00" from="-386114779#1" to="-386278913#1" type="truck"/>
    <trip id="tru29" depart="203.00" from="247833371#1-AddedOnRampEdge" to="4902373" type="truck"/>
    <trip id="tru30" depart="210.00" from="-523058452" to="-351479491" type="truck"/>
    <trip id="tru31" depart="217.00" from="96097829#0" to="245234850#2" type="truck"/>
    <trip id="tru32" depart="224.00" from="-229479575#1" to="-157483950#2" type="truck"/>
    <trip id="tru33" depart="231.00" from="-249697140" to="27572161" type="truck"/>
    <trip id="tru34" depart="238.00" from="386114193" to="157642287#1" type="truck"/>
    <trip id="tru35" depart="245.00" from="-168645103#1" to="122735176#2" type="truck"/>
    <trip id="tru36" depart="252.00" from="8430747" to="248521874#0" type="truck"/>
    <trip id="tru37" depart="259.00" from="27571849#5" to="249697090#3" type="truck"/>
    <trip id="tru38" depart="266.00" from="-386114781" to="27951260" type="truck"/>
    <trip id="tru39" depart="273.00" from="143331551#4" to="522933336" type="truck"/>
    <trip id="tru40" depart="280.00" from="4734472" to="-458268603" type="truck"/>
    <trip id="tru41" depart="287.00" from="161392075#1" to="-27951322#1" type="truck"/>
    <trip id="tru42" depart="294.00" from="4774376" to="475370191#0" type="truck"/>
    <trip id="tru43" depart="301.00" from="-443606344" to="27840841#3" type="truck"/>
    <trip id="tru44" depart="308.00" from="250338867" to="-27571495#0" type="truck"/>
    <trip id="tru45" depart="315.00" from="344144147#2" to="249697138" type="truck"/>
    <trip id="tru46" depart="322.00" from="360359321#0" to="248521901" type="truck"/>
    <trip id="tru47" depart="329.00" from="-10785858#1" to="-4902394#7" type="truck"/>
    <trip id="tru48" depart="336.00" from="-122735192" to="4902474" type="truck"/>
    <trip id="tru49" depart="343.00" from="4734476#0" to="466974189" type="truck"/>
    <trip id="tru50" depart="350.00" from="-466974189" to="-157643731#0" type="truck"/>
    <trip id="tru51" depart="357.00" from="-221893275" to="229481708#2" type="truck"/>
    <trip id="tru52" depart="364.00" from="345328736" to="-27467658#0" type="truck"/>
    <trip id="tru53" depart="371.00" from="157483950#0" to="252482711#2" type="truck"/>
    <trip id="tru54" depart="378.00" from="-386114779#2" to="476128412#1" type="truck"/>
    <trip id="tru55" depart="385.00" from="122735128#1" to="-345328749#1" type="truck"/>
    <trip id="tru56" depart="392.00" from="229479575#1" to="386114158" type="truck"/>
    <trip id="tru57" depart="399.00" from="-28885076#2" to="-486221978" type="truck"/>
    <trip id="tru58" depart="406.00" from="8154721#2" to="27951311" type="truck"/>
    <trip id="tru59" depart="413.00" from="122735176#1" to="245553663#15" type="truck"/>
    <trip id="tru60" depart="420.00" from="-4770193" to="27558788#2" type="truck"/>
    <trip id="tru61" depart="427.00" from="-386114158" to="-358457707#0" type="truck"/>
    <trip id="tru62" depart="434.00" from="-221888727" to="27572173#1" type="truck"/>
    <trip id="tru63" depart="441.00" from="-386113080" to="4902401" type="truck"/>
    <trip id="tru64" depart="448.00" from="472142225" to="-168645104#0" type="truck"/>
    <trip id="tru65" depart="455.00" from="-386114163" to="27952559#1" type="truck"/>
    <trip id="tru66" depart="462.00" from="-345328742#1" to="-27558694" type="truck"/>
    <trip id="tru67" depart="469.00" from="157483947#1" to="386579161" type="truck"/>
    <trip id="tru68" depart="476.00" from="386579171" to="-28788374#0" type="truck"/>
    <trip id="tru69" depart="483.00" from="-244074953#0" to="161389756#0" type="truck"/>
    <trip id="tru70" depart="490.00" from="122735130" to="221893219#2" type="truck"/>
    <trip id="tru71" depart="497.00" from="550725735#0" to="-245234780" type="truck"/>
    <trip id="tru72" depart="504.00" from="-53172877#1" to="-4902450#3" type="truck"/>
    <trip id="tru73" depart="511.00" from="47221489" to="-39368522#0" type="truck"/>
    <trip id="tru74" depart="518.00" from="-28788374#1" to="162154116#2" type="truck"/>
    <trip id="tru75" depart="525.00" from="109496226#2" to="-4727809#7" type="truck"/>
    <trip id="tru76" depart="532.00" from="122735201#0" to="473691601#0" type="truck"/>
    <trip id="tru77" depart="539.00" from="24184195#3" to="-157642252" type="truck"/>
    <trip id="tru78" depart="546.00" from="531846850" to="4902451#0" type="truck"/>
    <trip id="tru79" depart="553.00" from="4629513#1" to="-27572156" type="truck"/>
    <trip id="tru80" depart="560.00" from="-523061813" to="-157643732#0" type="truck"/>
    <trip id="tru81" depart="567.00" from="-4902450#4" to="550860119#2" type="truck"/>
    <trip id="tru82" depart="574.00" from="-386114779#2" to="386579161" type="truck"/>
    <trip id="tru83" depart="581.00" from="157422557#0" to="157642287#4" type="truck"/>
    <trip id="tru84" depart="588.00" from="506271618#3" to="88497949#1" type="truck"/>
    <trip id="tru85" depart="595.00" from="245234770#11" to="345332018#1" type="truck"/>
    <trip id="tru86" depart="602.00" from="-27571857" to="-4770189#0" type="truck"/>
    <trip id="tru87" depart="609.00" from="531846850" to="27558703" type="truck"/>
    <trip id="tru88" depart="616.00" from="229481726#0" to="386114184#0" type="truck"/>
    <trip id="tru89" depart="623.00" from="-157643733#2" to="27558754#1" type="truck"/>
    <trip id="tru90" depart="630.00" from="-27572156" to="528715329" type="truck"/>
    <trip id="tru91" depart="637.00" from="-221893237" to="-28031869#3" type="truck"/>
    <trip id="tru92" depart="644.00" from="248870340#0" to="28788368#1" type="truck"/>
    <trip id="tru93" depart="651.00" from="248521923#3" to="27571852" type="truck"/>
    <trip id="tru94" depart="658.00" from="183017632" to="501498999" type="truck"/>
    <trip id="tru95" depart="665.00" from="-327764057#2" to="345328748" type="truck"/>
    <trip id="tru96" depart="672.00" from="-386114164" to="143331551#7" type="truck"/>
    <trip id="tru97" depart="679.00" from="27571486" to="-4770191#7" type="truck"/>
    <trip id="tru98" depart="686.00" from="-221888735" to="183017602" type="truck"/>
    <trip id="tru99" depart="693.00" from="96097834" to="88497949#2" type="truck"/>
    <trip id="tru100" depart="700.00" from="-221893210#1" to="-345332018#0" type="truck"/>
    <trip id="tru101" depart="707.00" from="-386114779#2" to="501498996" type="truck"/>
    <trip id="tru102" depart="714.00" from="-4902433#5" to="-27571848#3" type="truck"/>
    <trip id="tru103" depart="721.00" from="250338892" to="550867442#2" type="truck"/>
    <trip id="tru104" depart="728.00" from="27570526#1" to="-122735162" type="truck"/>
    <trip id="tru105" depart="735.00" from="409581860#9" to="-4770191#5" type="truck"/>
    <trip id="tru106" depart="742.00" from="27571469#0" to="501500451" type="truck"/>
    <trip id="tru107" depart="749.00" from="-27570527#2" to="-252482715#5" type="truck"/>
    <trip id="tru108" depart="756.00" from="-249697087#2" to="252482715#6" type="truck"/>
    <trip id="tru109" depart="763.00" from="-386114797" to="27571483#3" type="truck"/>
    <trip id="tru110" depart="770.00" from="27951333#0" to="-327764057#2" type="truck"/>
    <trip id="tru111" depart="777.00" from="27467656" to="-458268603" type="truck"/>
    <trip id="tru112" depart="784.00" from="458268603" to="-229481708#0" type="truck"/>
    <trip id="tru113" depart="791.00" from="122735130" to="-4727809#11" type="truck"/>
    <trip id="tru114" depart="798.00" from="-10786728#1" to="386114790" type="truck"/>
    <trip id="tru115" depart="805.00" from="27490672#2" to="-442027004#0" type="truck"/>
    <trip id="tru116" depart="812.00" from="-221893215#2" to="4774370#1" type="truck"/>
    <trip id="tru117" depart="819.00" from="4770193" to="250338817#5" type="truck"/>
    <trip id="tru118" depart="826.00" from="-27571848#0" to="-27467655#1" type="truck"/>
    <trip id="tru119" depart="833.00" from="386114775#1" to="473691590#1" type="truck"/>
    <trip id="tru120" depart="840.00" from="386113076#0" to="4774404" type="truck"/>
    <trip id="tru121" depart="847.00" from="-550735550" to="27571855#1" type="truck"/>
    <trip id="tru122" depart="854.00" from="-27571856" to="490522132" type="truck"/>
    <trip id="tru123" depart="861.00" from="4727807#4" to="550712035" type="truck"/>
    <trip id="tru124" depart="868.00" from="-473691620#2" to="494424630" type="truck"/>
    <trip id="tru125" depart="875.00" from="386114789" to="473691606#1" type="truck"/>
    <trip id="tru126" depart="882.00" from="39368524#1" to="-466974166#0" type="truck"/>
    <trip id="tru127" depart="889.00" from="386114186#0" to="-248521917#0" type="truck"/>
    <trip id="tru128" depart="896.00" from="4727809#9" to="473684642#0" type="truck"/>
    <trip id="tru129" depart="903.00" from="-358457707#2" to="4559087" type="truck"/>
    <trip id="tru130" depart="910.00" from="157423552#0" to="-4774366" type="truck"/>
    <trip id="tru131" depart="917.00" from="-143331551#4" to="-28788382#3" type="truck"/>
    <trip id="tru132" depart="924.00" from="523057042" to="-4727809#9" type="truck"/>
    <trip id="tru133" depart="931.00" from="27558745" to="157422557#1" type="truck"/>
    <trip id="tru134" depart="938.00" from="549941138#0" to="249697090#0" type="truck"/>
    <trip id="tru135" depart="945.00" from="4902428" to="-252482715#5" type="truck"/>
    <trip id="tru136" depart="952.00" from="543344250#0" to="-27951322#1" type="truck"/>
    <trip id="tru137" depart="959.00" from="519339286#0" to="-466974156#0" type="truck"/>
    <trip id="tru138" depart="966.00" from="-249697138" to="161392064#1" type="truck"/>
    <trip id="tru139" depart="973.00" from="-506271618#2" to="27490672#1" type="truck"/>
    <trip id="tru140" depart="980.00" from="-386114191" to="344113927" type="truck"/>
    <trip id="tru141" depart="987.00" from="-10785858#5" to="4902450#4" type="truck"/>
    <trip id="tru142" depart="994.00" from="229479575#0" to="345332038" type="truck"/>
    <trip id="tru143" depart="1001.00" from="312299088#2" to="28788359#0" type="truck"/>
    <trip id="tru144" depart="1008.00" from="27571470#0" to="-4902423" type="truck"/>
    <trip id="tru145" depart="1015.00" from="27951336" to="-4770191#9" type="truck"/>
    <trip id="tru146" depart="1022.00" from="-47221488" to="157483942#2" type="truck"/>
    <trip id="tru147" depart="1029.00" from="-27490680" to="157642274#1" type="truck"/>
    <trip id="tru148" depart="1036.00" from="4770191#7" to="27571848#4" type="truck"/>
    <trip id="tru149" depart="1043.00" from="-466974156#0" to="250338875" type="truck"/>
    <trip id="tru150" depart="1050.00" from="-10785858#0" to="-473684642#1" type="truck"/>
    <trip id="tru151" depart="1057.00" from="122735160#0" to="27558703" type="truck"/>
    <trip id="tru152" depart="1064.00" from="122735194#1" to="-345332022" type="truck"/>
    <trip id="tru153" depart="1071.00" from="157483949#0" to="4902378#0" type="truck"/>
    <trip id="tru154" depart="1078.00" from="386114775#0" to="-27572173#0" type="truck"/>
    <trip id="tru155" depart="1085.00" from="-221893275" to="245546867" type="truck"/>
    <trip id="tru156" depart="1092.00" from="27467650#1" to="-4902436#0" type="truck"/>
    <trip id="tru157" depart="1099.00" from="409581862#3" to="386114188#4" type="truck"/>
    <trip id="tru158" depart="1106.00" from="27571488#3" to="-386114159#1" type="truck"/>
    <trip id="tru159" depart="1113.00" from="-28885055#0" to="-143331551#2" type="truck"/>
    <trip id="tru160" depart="1120.00" from="-386114176#1" to="221893275" type="truck"/>
    <trip id="tru161" depart="1127.00" from="463947013#2" to="-168645107#3" type="truck"/>
    <trip id="tru162" depart="1134.00" from="-8154722" to="27572165#1" type="truck"/>
    <trip id="tru163" depart="1141.00" from="-28788382#5" to="324535454#2" type="truck"/>
    <trip id="tru164" depart="1148.00" from="161389761#1" to="-386114791" type="truck"/>
    <trip id="tru165" depart="1155.00" from="27570527#5" to="-122735156#0" type="truck"/>
    <trip id="tru166" depart="1162.00" from="327764054#0" to="386114787" type="truck"/>
    <trip id="tru167" depart="1169.00" from="-248521918" to="157642291" type="truck"/>
    <trip id="tru168" depart="1176.00" from="157422557#1" to="426799412#3" type="truck"/>
    <trip id="tru169" depart="1183.00" from="27571479#3" to="550873590" type="truck"/>
    <trip id="tru170" depart="1190.00" from="248870340#0" to="518473678" type="truck"/>
    <trip id="tru171" depart="1197.00" from="473691613" to="27571744" type="truck"/>
    <trip id="tru172" depart="1204.00" from="27951335#2" to="245234795#4" type="truck"/>
    <trip id="tru173" depart="1211.00" from="4328544" to="250338875" type="truck"/>
    <trip id="tru174" depart="1218.00" from="475370302" to="386114169" type="truck"/>
    <trip id="tru175" depart="1225.00" from="157483949#1" to="-425383184#0" type="truck"/>
    <trip id="tru176" depart="1232.00" from="345328736" to="245560600#3" type="truck"/>
    <trip id="tru177" depart="1239.00" from="27078594" to="-4727809#0" type="truck"/>
    <trip id="tru178" depart="1246.00" from="-221893219#2" to="-473679816#1" type="truck"/>
    <trip id="tru179" depart="1253.00" from="-386114159#2" to="320070573#1" type="truck"/>
    <trip id="tru180" depart="1260.00" from="27951309#0" to="-157643736#5" type="truck"/>
    <trip id="tru181" depart="1267.00" from="-550735550" to="249870999#1" type="truck"/>
    <trip id="tru182" depart="1274.00" from="-88497949#0" to="-343764294" type="truck"/>
    <trip id="tru183" depart="1281.00" from="10785858#3" to="4902396" type="truck"/>
    <trip id="tru184" depart="1288.00" from="-4902451#2" to="-122735156#1" type="truck"/>
    <trip id="tru185" depart="1295.00" from="466974169" to="519339286#2" type="truck"/>
    <trip id="tru186" depart="1302.00" from="10785374" to="386114178" type="truck"/>
    <trip id="tru187" depart="1309.00" from="229481767#1" to="27571479#3" type="truck"/>
    <trip id="tru188" depart="1316.00" from="122735172" to="-157423551#0" type="truck"/>
    <trip id="tru189" depart="1323.00" from="-548651990#1" to="-27572154#0" type="truck"/>
    <trip id="tru190" depart="1330.00" from="157483940#3" to="-27467655#2" type="truck"/>
    <trip id="tru191" depart="1337.00" from="27016563#0" to="-157422557#0" type="truck"/>
    <trip id="tru192" depart="1344.00" from="-518474788" to="255915662#3" type="truck"/>
    <trip id="tru193" depart="1351.00" from="-156251563" to="27951285#2" type="truck"/>
    <trip id="tru194" depart="1358.00" from="-27570528#1" to="221888727" type="truck"/>
    <trip id="tru195" depart="1365.00" from="-157642274#2" to="122735167" type="truck"/>
    <trip id="tru196" depart="1372.00" from="343763223#1" to="122735167" type="truck"/>
    <trip id="tru197" depart="1379.00" from="-386114189" to="-221893214#0" type="truck"/>
    <trip id="tru198" depart="1386.00" from="96494363" to="-531846850" type="truck"/>
    <trip id="tru199" depart="1393.00" from="27558788#0" to="386278944#1" type="truck"/>
    <trip id="tru200" depart="1400.00" from="27558789#1" to="386114190" type="truck"/>
    <trip id="tru201" depart="1407.00" from="496360757" to="-28885076#0" type="truck"/>
    <trip id="tru202" depart="1414.00" from="-27490679#1" to="27952559#3" type="truck"/>
    <trip id="tru203" depart="1421.00" from="245234799#4" to="-345332044" type="truck"/>
    <trip id="tru204" depart="1428.00" from="27840841#3" to="386114779#2" type="truck"/>
    <trip id="tru205" depart="1435.00" from="-27840838#0" to="27571486" type="truck"/>
    <trip id="tru206" depart="1442.00" from="410069075#1" to="549815935" type="truck"/>
    <trip id="tru207" depart="1449.00" from="-249697138" to="-143331551#6" type="truck"/>
    <trip id="tru208" depart="1456.00" from="-4727807#4" to="28788377#1" type="truck"/>
    <trip id="tru209" depart="1463.00" from="506329457#2" to="143426399#0" type="truck"/>
    <trip id="tru210" depart="1470.00" from="27951329#0" to="-168645111#4" type="truck"/>
    <trip id="tru211" depart="1477.00" from="-245234850#1" to="386114797" type="truck"/>
    <trip id="tru212" depart="1484.00" from="-27218103#2" to="550757841" type="truck"/>
    <trip id="tru213" depart="1491.00" from="386113079" to="-523057042" type="truck"/>
    <trip id="tru214" depart="1498.00" from="162154108#0" to="-506271618#0" type="truck"/>
    <trip id="tru215" depart="1505.00" from="-248521903#0" to="528715329" type="truck"/>
    <trip id="tru216" depart="1512.00" from="27951309#3" to="161392064#5" type="truck"/>
    <trip id="tru217" depart="1519.00" from="-386114787" to="443606339" type="truck"/>
    <trip id="tru218" depart="1526.00" from="122735171" to="386114158" type="truck"/>
    <trip id="tru219" depart="1533.00" from="-386114784" to="4734476#0" type="truck"/>
    <trip id="tru220" depart="1540.00" from="4328546#0" to="-221893237" type="truck"/>
    <trip id="tru221" depart="1547.00" from="473679813" to="-386114791" type="truck"/>
    <trip id="tru222" depart="1554.00" from="157483505#1" to="27571495#0" type="truck"/>
    <trip id="tru223" depart="1561.00" from="-4902450#4" to="-157423546#0" type="truck"/>
    <trip id="tru224" depart="1568.00" from="466974156#0" to="-27951334#0" type="truck"/>
    <trip id="tru225" depart="1575.00" from="-4770196#1" to="4774365#0" type="truck"/>
    <trip id="tru226" depart="1582.00" from="27951279#2" to="-4727809#10" type="truck"/>
    <trip id="tru227" depart="1589.00" from="-122735156#1" to="518473676" type="truck"/>
    <trip id="tru228" depart="1596.00" from="-221893275" to="345332043#1" type="truck"/>
    <trip id="tru229" depart="1603.00" from="157643732#1" to="386114192#4" type="truck"/>
    <trip id="tru230" depart="1610.00" from="27572162#2" to="27951304#7" type="truck"/>
    <trip id="tru231" depart="1617.00" from="157643735#0" to="409581860#1" type="truck"/>
    <trip id="tru232" depart="1624.00" from="-229481708#2" to="-386113077#0" type="truck"/>
    <trip id="tru233" depart="1631.00" from="27572165#2" to="-4774366" type="truck"/>
    <trip id="tru234" depart="1638.00" from="221893225" to="157642291" type="truck"/>
    <trip id="tru235" depart="1645.00" from="319453545#1" to="-4902426#1" type="truck"/>
    <trip id="tru236" depart="1652.00" from="27951304#3" to="-466991750#0" type="truck"/>
    <trip id="tru237" depart="1659.00" from="221893279" to="386114208" type="truck"/>
    <trip id="tru238" depart="1666.00" from="-28788359#1" to="-345332043#0" type="truck"/>
    <trip id="tru239" depart="1673.00" from="157643725#1" to="386113076#4" type="truck"/>
    <trip id="tru240" depart="1680.00" from="549928648#3" to="247833371#1-AddedOnRampEdge" type="truck"/>
    <trip id="tru241" depart="1687.00" from="-386579153" to="-245234796#0" type="truck"/>
    <trip id="tru242" depart="1694.00" from="-28788382#4" to="-386114184#0" type="truck"/>
    <trip id="tru243" depart="1701.00" from="221893257" to="-4727807#3" type="truck"/>
    <trip id="tru244" depart="1708.00" from="549928642#1" to="252482715#6" type="truck"/>
    <trip id="tru245" depart="1715.00" from="27840840#0" to="-27218104#3" type="truck"/>
    <trip id="tru246" depart="1722.00" from="4727809#0" to="24184169#2" type="truck"/>
    <trip id="tru247" depart="1729.00" from="4727811" to="27467656" type="truck"/>
    <trip id="tru248" depart="1736.00" from="157483942#3" to="162154102#0" type="truck"/>
    <trip id="tru249" depart="1743.00" from="-28788359#1" to="-157642260#0" type="truck"/>
    <trip id="tru250" depart="1750.00" from="4902433#4" to="229479522" type="truck"/>
    <trip id="tru251" depart="1757.00" from="422062691" to="157423546#1" type="truck"/>
    <trip id="tru252" depart="1764.00" from="-221893210#1" to="27572165#0" type="truck"/>
    <trip id="tru253" depart="1771.00" from="-157642291" to="-27571484#1" type="truck"/>
    <trip id="tru254" depart="1778.00" from="245234799#0" to="-4770307#4" type="truck"/>
    <trip id="tru255" depart="1785.00" from="8148885#1" to="-27016573#0" type="truck"/>
    <trip id="tru256" depart="1792.00" from="183017632" to="168645103#2" type="truck"/>
    <trip id="tru257" depart="1799.00" from="122735197" to="473691589" type="truck"/>
    <trip id="tru258" depart="1806.00" from="550860118#2" to="-4774366" type="truck"/>
    <trip id="tru259" depart="1813.00" from="27016563#0" to="27571492#1" type="truck"/>
    <trip id="tru260" depart="1820.00" from="28885076#1" to="518473676" type="truck"/>
    <trip id="tru261" depart="1827.00" from="-341224415#1" to="-345328742#2" type="truck"/>
    <trip id="tru262" depart="1834.00" from="-27951311" to="-168645111#1" type="truck"/>
    <trip id="tru263" depart="1841.00" from="-10786728#1" to="168645103#2" type="truck"/>
    <trip id="tru264" depart="1848.00" from="248521923#1" to="-473691609" type="truck"/>
    <trip id="tru265" depart="1855.00" from="-386114160#0" to="343763218" type="truck"/>
    <trip id="tru266" depart="1862.00" from="27951304#4" to="168645109#0" type="truck"/>
    <trip id="tru267" depart="1869.00" from="27572154#1" to="4902449" type="truck"/>
    <trip id="tru268" depart="1876.00" from="386114188#0" to="27572158" type="truck"/>
    <trip id="tru269" depart="1883.00" from="122735133" to="250338817#1" type="truck"/>
    <trip id="tru270" depart="1890.00" from="27558781" to="4902415#2" type="truck"/>
    <trip id="tru271" depart="1897.00" from="425383186" to="-168645105#0" type="truck"/>
    <trip id="tru272" depart="1904.00" from="-27709338" to="-4774375#0" type="truck"/>
    <trip id="tru273" depart="1911.00" from="320070573#6" to="27218102#1" type="truck"/>
    <trip id="tru274" depart="1918.00" from="-409581860#0" to="-27218103#1" type="truck"/>
    <trip id="tru275" depart="1925.00" from="27572155#1" to="327956372" type="truck"/>
    <trip id="tru276" depart="1932.00" from="4902436#0" to="245234777" type="truck"/>
    <trip id="tru277" depart="1939.00" from="161389758" to="-221888735" type="truck"/>
    <trip id="tru278" depart="1946.00" from="-157483947#3" to="161389761#1" type="truck"/>
    <trip id="tru279" depart="1953.00" from="-229479575#2" to="53172877#2" type="truck"/>
    <trip id="tru280" depart="1960.00" from="443606341#2" to="27490670#0" type="truck"/>
    <trip id="tru281" depart="1967.00" from="27571488#1" to="-466974177#1" type="truck"/>
    <trip id="tru282" depart="1974.00" from="157483942#7" to="27951314" type="truck"/>
    <trip id="tru283" depart="1981.00" from="4806339" to="-27951332#1" type="truck"/>
    <trip id="tru284" depart="1988.00" from="248521865#0" to="27840836" type="truck"/>
    <trip id="tru285" depart="1995.00" from="157643736#2" to="-229479573#3" type="truck"/>
    <trip id="tru286" depart="2002.00" from="27571484#3" to="473679823" type="truck"/>
    <trip id="tru287" depart="2009.00" from="-473691610" to="319453545#1" type="truck"/>
    <trip id="tru288" depart="2016.00" from="402922224" to="252482711#3" type="truck"/>
    <trip id="tru289" depart="2023.00" from="143426399#1" to="-487551846#1" type="truck"/>
    <trip id="tru290" depart="2030.00" from="-473691589" to="549939606#6" type="truck"/>
    <trip id="tru291" depart="2037.00" from="-548651990#1" to="245546856#1" type="truck"/>
    <trip id="tru292" depart="2044.00" from="550753287#6" to="27951327#1" type="truck"/>
    <trip id="tru293" depart="2051.00" from="229481726#0" to="157483950#2" type="truck"/>
    <trip id="tru294" depart="2058.00" from="-28788366" to="10785858#1" type="truck"/>
    <trip id="tru295" depart="2065.00" from="329013842" to="27572159" type="truck"/>
    <trip id="tru296" depart="2072.00" from="24184169#2" to="4902451#2" type="truck"/>
    <trip id="tru297" depart="2079.00" from="122735176#1" to="327764057#0" type="truck"/>
    <trip id="tru298" depart="2086.00" from="250338867" to="-386114780" type="truck"/>
    <trip id="tru299" depart="2093.00" from="244035493" to="-229481762#1" type="truck"/>
    <trip id="tru300" depart="2100.00" from="551160579" to="4902426#3" type="truck"/>
    <trip id="tru301" depart="2107.00" from="27951331" to="245234842" type="truck"/>
    <trip id="tru302" depart="2114.00" from="-386114798" to="47221485#1" type="truck"/>
    <trip id="tru303" depart="2121.00" from="549939609#6" to="-386114791" type="truck"/>
    <trip id="tru304" depart="2128.00" from="244035440#0" to="122735182#2" type="truck"/>
    <trip id="tru305" depart="2135.00" from="490134197#1" to="245234801#2" type="truck"/>
    <trip id="tru306" depart="2142.00" from="4734487" to="473691606#1" type="truck"/>
    <trip id="tru307" depart="2149.00" from="-386223027" to="401773368" type="truck"/>
    <trip id="tru308" depart="2156.00" from="-8154722" to="501498997" type="truck"/>
    <trip id="tru309" depart="2163.00" from="162154108#4" to="463947013#3" type="truck"/>
    <trip id="tru310" depart="2170.00" from="-386579153" to="-4770191#1" type="truck"/>
    <trip id="tru311" depart="2177.00" from="157643733#0" to="-27571483#2" type="truck"/>
    <trip id="tru312" depart="2184.00" from="229479575#0" to="-518473679" type="truck"/>
    <trip id="tru313" depart="2191.00" from="244035493" to="249870999#1" type="truck"/>
    <trip id="tru314" depart="2198.00" from="157422557#0" to="-4902389#1" type="truck"/>
    <trip id="tru315" depart="2205.00" from="245546852" to="-386114193" type="truck"/>
    <trip id="tru316" depart="2212.00" from="401262992#0" to="122735192" type="truck"/>
    <trip id="tru317" depart="2219.00" from="27571469#1" to="463947013#4" type="truck"/>
    <trip id="tru318" depart="2226.00" from="549939609#8" to="244074953#1" type="truck"/>
    <trip id="tru319" depart="2233.00" from="-157483942#2" to="245234785" type="truck"/>
    <trip id="tru320" depart="2240.00" from="248521901" to="473691621" type="truck"/>
    <trip id="tru321" depart="2247.00" from="4727898#1" to="162043157#1" type="truck"/>
    <trip id="tru322" depart="2254.00" from="221888735" to="179109642#1" type="truck"/>
    <trip id="tru323" depart="2261.00" from="27951347#3" to="157483942#8" type="truck"/>
    <trip id="tru324" depart="2268.00" from="27570527#1" to="-27571495#6" type="truck"/>
    <trip id="tru325" depart="2275.00" from="157483942#4" to="549939606#2" type="truck"/>
    <trip id="tru326" depart="2282.00" from="-4770195#0" to="319453543#6" type="truck"/>
    <trip id="tru327" depart="2289.00" from="27558788#0" to="4734476#0" type="truck"/>
    <trip id="tru328" depart="2296.00" from="466974166#0" to="473691589" type="truck"/>
    <trip id="tru329" depart="2303.00" from="-4902451#2" to="-490134197#0" type="truck"/>
    <trip id="tru330" depart="2310.00" from="27951335#0" to="386114197#1" type="truck"/>
    <trip id="tru331" depart="2317.00" from="4727810" to="-157483507#0" type="truck"/>
    <trip id="tru332" depart="2324.00" from="-168645111#0" to="27572173#1" type="truck"/>
    <trip id="tru333" depart="2331.00" from="490134197#0" to="96097794" type="truck"/>
    <trip id="tru334" depart="2338.00" from="320070573#0" to="161392062" type="truck"/>
    <trip id="tru335" depart="2345.00" from="-245234779" to="27803780#0" type="truck"/>
    <trip id="tru336" depart="2352.00" from="4727811" to="162154108#2" type="truck"/>
    <trip id="tru337" depart="2359.00" from="27572175" to="4902394#2" type="truck"/>