<?xml version="1.0" encoding="UTF-8"?>

<!-- generated on Thu Jan  4 15:02:30 2018 by SUMO duarouter Version 0.30.0
<?xml version="1.0" encoding="UTF-8"?>

<configuration xmlns:xsi="http://www.w3.org/2001/XMLSchema-instance" xsi:noNamespaceSchemaLocation="http://sumo.dlr.de/xsd/duarouterConfiguration.xsd">

    <input>
        <net-file value="/media/jefferson/Dados/workspace/GoodsTracker/vanet/sp/sp.net.xml"/>
        <trip-files value="/media/jefferson/Dados/workspace/GoodsTracker/vanet/sp/sp.truck.trips.xml"/>
    </input>

    <output>
        <output-file value="/media/jefferson/Dados/workspace/GoodsTracker/vanet/sp/sp.truck.rou.xml"/>
    </output>

    <processing>
        <ignore-errors value="true"/>
    </processing>

    <time>
        <begin value="0"/>
        <end value="3600.0"/>
    </time>

    <report>
        <no-warnings value="true"/>
        <no-step-log value="true"/>
    </report>

</configuration>
-->

<routes xmlns:xsi="http://www.w3.org/2001/XMLSchema-instance" xsi:noNamespaceSchemaLocation="http://sumo.dlr.de/xsd/routes_file.xsd">
    <vType id="truck" vClass="truck"/>
    <vehicle id="tru0" type="truck" depart="0.00">
        <route edges="327764059#1 161392064#0 161392064#1 161392064#3 161392064#4 161392064#5 319453543#0 319453543#1 319453543#2 161392073#0 161392072 319453543#4 319453543#5 319453543#6 161389765 161392059#0 550860119#2 -550865716 -4734472 221893217#0 221893217#1 -511815820 -221893257"/>
    </vehicle>
    <vehicle id="tru1" type="truck" depart="7.00">
        <route edges="-4902418#2 4902418#2 4902418#3 4902431 -4902428 -8154721#0 -4902447"/>
    </vehicle>
    <vehicle id="tru4" type="truck" depart="28.00">
        <route edges="161392073#0 161392072 319453543#4 319453543#5 319453543#6 161389765 161392059#0 550860119#2 -550865716 -4734472 221893217#0 221893217#1 -511815820 -221893257"/>
    </vehicle>
    <vehicle id="tru5" type="truck" depart="35.00">
        <route edges="-4774365#1 -4774365#0 550873590 550732345 550745968 550741745 550757841 550725735#0 550756710#0 550756710#1 550747490 4902378#0 4902378#1 549917967 319453543#0 27490680 -28788368#1 -28788368#0 28788368#0"/>
    </vehicle>
    <vehicle id="tru11" type="truck" depart="77.00">
        <route edges="-518474788 -162043156 -39368522#4 -518474575 -473691590#0 -39368524#1"/>
    </vehicle>
    <vehicle id="tru13" type="truck" depart="91.00">
        <route edges="-27840841#1 -27840841#0 -27803780#2 -27803780#1 179109642#1 28788370#0 28788371#0 -28788371#0"/>
    </vehicle>
    <vehicle id="tru14" type="truck" depart="98.00">
        <route edges="4902440#2 4902440#3 245553663#9 550749977 4559005#1 386223029"/>
    </vehicle>
    <vehicle id="tru15" type="truck" depart="105.00">
        <route edges="4902391 4902392 8154721#3 4902414#1 4902414#2 4902414#3 161389761#1 245553663#8 245553663#9 550749977 4559005#1 4559005#2 -550757841 -550741745 -550745968 -550732345 4877453 4877450"/>
    </vehicle>
    <vehicle id="tru18" type="truck" depart="126.00">
        <route edges="4902418#1 4902418#2 4902418#3 4902418#4 -4902451#1 -4902436#0 -549928646#1 -549928646#0 -28788362 4902394#0 4902394#1 4902394#2 4902394#3 4902394#4 4902394#5 386278913"/>
    </vehicle>
    <vehicle id="tru19" type="truck" depart="133.00">
        <route edges="4902451#1 -4902451#1 -4902436#0 4902416#0 4902416#2 161392064#3 161392064#4 27840836 27840840#3 340955664"/>
    </vehicle>
    <vehicle id="tru21" type="truck" depart="147.00">
        <route edges="-4774404 -4774365#0 550873590 550732345 550745968 550741745 550757841 550725735#0 550756710#0 550756710#1 550747490 4902378#0 4902378#1 549917967 319453543#0 319453543#1 319453543#2 161392073#0 161392072 319453543#4 319453543#5 319453543#6 319453544 161392067 161392069#1 96097794 15968349"/>
    </vehicle>
    <vehicle id="tru22" type="truck" depart="154.00">
        <route edges="-27840840#2 -179109642#2 -179109642#1 27803780#1 27803780#2 340955662 -27570527#4 -27570527#3 -27570527#2 -4902394#2 -4902394#1 -4902394#0 28788362 549928642#0 -4902453"/>
    </vehicle>
    <vehicle id="tru23" type="truck" depart="161.00">
        <route edges="-28788361#2 -28885040#3 27570527#3 27570527#4 -340955662 -27803780#2 -28788366 -27840836 161392064#5 549345534 549815935 329013842 4559074#0 4559074#1 4559074#2 4559074#3 4559074#4 4559074#5 4559074#6 4559074#7 4559005#0 4559005#1 4559005#2 -550757841 -550741745 -550745968 -550732345 4877453 143331549#0 143331549#1 143331549#2"/>
    </vehicle>
    <vehicle id="tru24" type="truck" depart="168.00">
        <route edges="327764058 -4902394#5 -4902394#4 -4902394#3 27570527#2 27570527#3 27570527#4 -340955662 -27803780#2 -27803780#1 179109642#1 28788370#0 28788371#0 28788368#0 28788368#1 -27490680 319453543#1 319453543#2 161392073#0 161392072 319453543#4 319453543#5 319453543#6 161389765 161392059#0 550860119#2 -550865716 -4734472 221893217#0 221893217#1"/>
    </vehicle>
    <vehicle id="tru25" type="truck" depart="175.00">
        <route edges="-550867442#2 -550867442#1 -550867442#0 -229481708#2 -229481708#0 402922224 380438949#0 380438949#1 319447428#1 319447428#2 319447428#3 401773368 327956372 327956373#0 327956373#1 4902374#0 4902374#1 4902374#2 4902374#3 4902436#0 4902436#1 -4902428"/>
    </vehicle>
    <vehicle id="tru26" type="truck" depart="182.00">
        <route edges="-4902414#0 8154721#3 4902414#1 4902414#2 4902414#3 161389761#1 245553663#8 245553663#9 550749977 4559005#1 4559005#2 -550757841 -550741745 -550745968 -550732345 -550873590 4774365#0 -4774365#0 550873590 550732345 550745968 550741745 550757841 550725735#0 550756710#0 550756710#1 550747490"/>
    </vehicle>
    <vehicle id="tru27" type="truck" depart="189.00">
        <route edges="340955662 -340955662 -27803780#2 -27803780#1 179109642#1 28788370#0 28788371#0 28788368#0 28788368#1 -27490680 319453543#1 319453543#2 161392073#0 161392072 319453543#4 319453543#5 319453543#6 161389765 161392059#0 550860118#0 550860118#1 386278897"/>
    </vehicle>
    <vehicle id="tru28" type="truck" depart="196.00">
        <route edges="-386114209 -143331549#1 -143331549#0 4877450"/>
    </vehicle>
    <vehicle id="tru30" type="truck" depart="210.00">
        <route edges="96097829#0 438155977#0 438155977#1-AddedOnRampEdge 438155977#1"/>
    </vehicle>
    <vehicle id="tru32" type="truck" depart="224.00">
        <route edges="4902436#1 -4902428 8154721#1 8154721#2 8154721#3 4902414#1 4902414#2 4902414#3"/>
    </vehicle>
    <vehicle id="tru33" type="truck" depart="231.00">
        <route edges="-4774404 -4774365#0 550873590 550732345 550745968 550741745 550757841 550725735#0 550756710#0 550756710#1 550747490 4902378#0 4902378#1 549917967 319453543#0 319453543#1 319453543#2 161392073#0 161392072 319453543#4 319453543#5 319453543#6 161389765 161392059#0 550860119#2 -550865716 -4734472 221893217#0 221893217#1 -511815820 -221893285#1 -221893285#0"/>
    </vehicle>
    <vehicle id="tru34" type="truck" depart="238.00">
        <route edges="-518473674 518473673 -550732345 -550873590"/>
    </vehicle>
    <vehicle id="tru35" type="truck" depart="245.00">
        <route edges="-473691590#0 39368524#2 380438949#1 319447428#1 319447428#2 319447428#3 8148885#0 8148885#1 4559074#0 4559074#1 4559074#2 4559074#3 4559074#4 4559074#5 4559074#6 4559074#7 4559087 4559118 550753286 550753287#0 550753287#1"/>
    </vehicle>
    <vehicle id="tru36" type="truck" depart="252.00">
        <route edges="518473672 518473674 -518473674 518473673 -550732345 -550873590 4774365#0 -4774365#0 550873590 550732345 550745968 550741745 550757841 550725735#0 550756710#0 550756710#1 550747490 4902378#0 4902474 327956373#1 327956374 161392064#3 161392064#4 161392064#5"/>
    </vehicle>
    <vehicle id="tru38" type="truck" depart="266.00">
        <route edges="549928648#0 4902394#2 4902394#3 28788361#1 28788361#2 27570528#4"/>
    </vehicle>
    <vehicle id="tru39" type="truck" depart="273.00">
        <route edges="-4902399 4902418#2 4902418#3 4902418#4 -4902451#1 -4902436#0 4902416#0 4902416#2 161392064#3 161392064#4 161392064#5 319453543#0 319453543#1 319453543#2 161392073#0 161392072 319453543#4 319453543#5 319453543#6 161389765 161392059#0 550860119#2 -550865716 -4734472 221893217#0 -548651990#1 -548651990#0"/>
    </vehicle>
    <vehicle id="tru40" type="truck" depart="280.00">
        <route edges="27840840#2 -27840840#2 -27840840#1 -27840840#0 28788368#1 -27490680 319453543#1 319453543#2 161392073#0 161392072 319453543#4 319453543#5 319453543#6 161389765 161392059#0 550860119#2 -550865716"/>
    </vehicle>
    <vehicle id="tru43" type="truck" depart="301.00">
        <route edges="96097829#2 4523238 327754983 247833369#0 247833369#1 319447428#0 319447428#1 319447428#2 319447428#3 8148885#0 8148885#1 4559074#0 4559074#1 4559074#2 4559074#3 4559074#4 4559074#5 4559074#6 4559007 4902378#0 4902378#1 549917967 319453543#0 27490680 -28788368#1 -28788368#0 -28788371#0 28788370#1"/>
    </vehicle>
    <vehicle id="tru44" type="truck" depart="308.00">
        <route edges="-27840841#1 -27840841#0 -27803780#2 -27803780#1 179109642#1 28788370#0 28788371#0 28788368#0 28788368#1 -27490680 319453543#1 319453543#2 161392073#0 -27467656"/>
    </vehicle>
    <vehicle id="tru46" type="truck" depart="322.00">
        <route edges="4806304#2 327754983 4734476#0 4734476#1 319453545#0 319453545#1 249697090#0 249697090#1 249697090#2"/>
    </vehicle>
    <vehicle id="tru47" type="truck" depart="329.00">
        <route edges="-27570528#4 -27570528#3 27570527#4 -340955662 -27803780#2 -27803780#1 179109642#1 28788370#0 28788371#0 28788368#0 28788368#1 -27490680 319453543#1 161392075#2 245234799#6 245234799#0"/>
    </vehicle>
    <vehicle id="tru48" type="truck" depart="336.00">
        <route edges="96097829#1 96097829#2 4523238 327754983 247833369#0 247833369#1 319447428#0 319447428#1 319447428#2 319447428#3 401773368 327956372 327956373#0 327956373#1 327956374 27570528#0 27570528#1 549928648#3 -28885070#1 28885070#1"/>
    </vehicle>
    <vehicle id="tru51" type="truck" depart="357.00">
        <route edges="39368522#0 39368522#1 39368522#2 -518474575 -473691590#0 39368524#2 380438949#1 319447428#1 319447428#2 319447428#3"/>
    </vehicle>
    <vehicle id="tru53" type="truck" depart="371.00">
        <route edges="-28788368#1 28788368#1 -27490680 319453543#1 319453543#2 161392073#0 161392072 319453543#4 319453543#5 319453543#6 161389765 247833371#0 247833371#1-AddedOnRampEdge 247833371#1 161389762-AddedOnRampEdge 161389762 249870999"/>
    </vehicle>
    <vehicle id="tru55" type="truck" depart="385.00">
        <route edges="518473672 518473674 -518473674 518473673 -550732345 -550873590 4774365#0 -4774365#0 550873590 550732345 550745968 550741745 550757841 550725735#0 550756710#0 550756710#1 550747490 4902378#0 4902378#1 549917967 319453543#0 319453543#1 319453543#2 161392073#0 161392072 319453543#4 319453543#5 319453543#6 161389765 161392059#0 550860119#2 -550865716"/>
    </vehicle>
    <vehicle id="tru56" type="truck" depart="392.00">
        <route edges="245553663#5 245553663#6 245553663#7 245553663#8 245553663#9 418990606 4902378#0 4902378#1 549917967 319453543#0 27490680 27840838#0 27840838#1 -473691594"/>
    </vehicle>
    <vehicle id="tru57" type="truck" depart="399.00">
        <route edges="549928646#0 161392062 4902416#2 161392064#3 161392064#4 161392064#5 319453543#0 319453543#1 161392075#2 245234799#6 245234799#0 549915319"/>
    </vehicle>
    <vehicle id="tru61" type="truck" depart="427.00">
        <route edges="473684643 -473684642#0 327754983 247833369#0 247833369#1 319447428#0 319447428#1 319447428#2 319447428#3 401773368 327956372 327956373#0 327956373#1 327956374 27570528#0 27570528#1 549928648#3 -28885070#1 28885070#1"/>
    </vehicle>
    <vehicle id="tru64" type="truck" depart="448.00">
        <route edges="518473675 -518473675 4559074#4 4559074#5 4559074#6 4559074#7 4559005#0 4559005#1 4559005#2 -550757841 -550741745 518473672 518473674"/>
    </vehicle>
    <vehicle id="tru66" type="truck" depart="462.00">
        <route edges="518473673 -550732345 -550873590 4774365#0 -4774365#0 550873590 550732345 550745968 550741745 550757841 550725735#0 4559084 550753287#0 550753287#1 550753287#2 550753287#3 550753287#4"/>
    </vehicle>
    <vehicle id="tru67" type="truck" depart="469.00">
        <route edges="-27840840#4 340955664 27840841#0 27840841#1"/>
    </vehicle>
    <vehicle id="tru68" type="truck" depart="476.00">
        <route edges="-27803780#2 27803780#2 340955662 -27570527#4 -27570527#3 -27570527#2 4902394#3 4902394#4"/>
    </vehicle>
    <vehicle id="tru71" type="truck" depart="497.00">
        <route edges="-4902399 4902399 8154721#2 8154721#3 4902414#1 4902414#2 4902414#3 161389761#1 245553663#8 245553663#9 418990606 4902378#0 4902378#1 549917967"/>
    </vehicle>
    <vehicle id="tru72" type="truck" depart="504.00">
        <route edges="161392074 161392081 161392075#1 161392075#2 245234799#6 245234799#0 549915319 327956372 327956373#0 327956373#1 4902374#0 4902374#1 4902374#2 4902374#3 4902436#0 -4902436#0"/>
    </vehicle>
    <vehicle id="tru73" type="truck" depart="511.00">
        <route edges="27570527#2 27570527#3 27570527#4 -340955662 -27803780#2 -28788366 -27840836 161392064#5 549345534 549815935 329013842 4559074#0 4559074#1 4559074#2 4559074#3 4559074#4 4559074#5 4559074#6 4559074#7 4559005#0 4559005#1 4559005#2 -550757841 -550741745 -550745968 -550732345 4877453 4877450"/>
    </vehicle>
    <vehicle id="tru74" type="truck" depart="518.00">
        <route edges="-473684642#0 327754983 247833369#0 247833369#1 319447428#0 319447428#1 319447428#2 319447428#3 401773368 327956372 327956373#0 327956373#1 327956374 161392064#3"/>
    </vehicle>
    <vehicle id="tru75" type="truck" depart="525.00">
        <route edges="96097829#0 96097829#1 96097829#2 4523238 327754983 247833369#0 247833369#1 319447428#0 319447428#1 319447428#2 319447428#3 8148885#0 8148885#1 4559074#0 4559074#1 4559074#2 4559074#3 4559074#4 4559074#5 4559074#6 4559074#7 4559005#0"/>
    </vehicle>
    <vehicle id="tru77" type="truck" depart="539.00">
        <route edges="-28885040#2 -549928648#1 -4902394#1 -4902394#0 28788362 549928646#0 161392062 4902374#3 4902436#0 -4902451#0"/>
    </vehicle>
    <vehicle id="tru79" type="truck" depart="553.00">
        <route edges="-4774404 -4774365#0 550873590 550732345 550745968 550741745 550757841 550725735#0 550756710#0 550756710#1 550747490 4902378#0 4902474 327956373#1 327956374 549928635 549928642#0 549928642#1 549928642#2 -4902441"/>
    </vehicle>
    <vehicle id="tru82" type="truck" depart="574.00">
        <route edges="4902447 -4902447 4902451#0 -4902436#0 4902416#0 4902416#2 161392064#3 161392064#4 27840836 -27840840#2 -27840840#1 -28788371#1 -28788371#0 28788370#1 27840838#1 -27840838#1"/>
    </vehicle>
    <vehicle id="tru85" type="truck" depart="595.00">
        <route edges="550712034 4806304#2 327754983 247833369#0 247833369#1 319447428#0 319447428#1 319447428#2 319447428#3 401773368 327956372 327956373#0"/>
    </vehicle>
    <vehicle id="tru86" type="truck" depart="602.00">
        <route edges="229481708#2 -229481708#2 -229481708#0 402922224 380438949#0 380438949#1 319447428#1 319447428#2 319447428#3 401773368 327956372 327956373#0 327956373#1 4902374#0 4902374#1 4902374#2 4902374#3 4902436#0 4902436#1 4902421"/>
    </vehicle>
    <vehicle id="tru87" type="truck" depart="609.00">
        <route edges="4902391 4902418#1 4902418#2 4902418#3 4902418#4 -4902451#1 -4902436#0 -549928646#1 -549928646#0 -28788362 4902394#0 4902394#1 4902394#2 4902394#3 -4902394#3"/>
    </vehicle>
    <vehicle id="tru88" type="truck" depart="616.00">
        <route edges="-27840841#1 -27840841#0 -27803780#2 -27803780#1 179109642#1 28788370#0 28788371#0 28788368#0 28788368#1 -27490680 319453543#1 319453543#2 161392073#0 161392072 319453543#4 319453543#5 319453543#6 161389765 247833371#0 247833371#1-AddedOnRampEdge 247833371#1 161389762-AddedOnRampEdge 161389762 249870999"/>
    </vehicle>
    <vehicle id="tru89" type="truck" depart="623.00">
        <route edges="161392075#0 161392075#1 161392075#2 245234799#6 161392080 329013842 4559074#0 4559074#1 4559074#2 4559074#3 4559074#4 4559074#5 4559074#6 4559007 4902378#0 4902378#1 549917967 319453543#0 27490680 27840838#0 27840838#1"/>
    </vehicle>
    <vehicle id="tru91" type="truck" depart="637.00">
        <route edges="8154721#2 -8154721#2 -8154721#1 4902428 -4902436#1 -4902436#0 4902416#0 4902416#2 161392064#3 161392064#4 27840836 -27840840#2 -27840840#1 -28788371#1"/>
    </vehicle>
    <vehicle id="tru93" type="truck" depart="651.00">
        <route edges="4902451#1 -4902451#1 -4902436#0 -549928646#1 -549928646#0"/>
    </vehicle>
    <vehicle id="tru94" type="truck" depart="658.00">
        <route edges="-39368522#2 39368522#2 -518474575 -473691590#0 39368524#2 380438949#1 319447428#1 319447428#2 319447428#3 401773368 327956372 327956373#0 327956373#1 327956374 27570528#0"/>
    </vehicle>
    <vehicle id="tru96" type="truck" depart="672.00">
        <route edges="-4902394#0 161392064#0 161392064#1 161392064#3 161392064#4 161392064#5 549345534 549815935 329013842 4559074#0 4559074#1 4559074#2 4559074#3 4559074#4 4559074#5 4559074#6 4559074#7 4559005#0 4559005#1 4559005#2 -550757841 -550741745 -550745968 -550732345 -550873590 4774365#0 -4774365#0 550873590 550732345 550745968 550741745 550757841 550725735#0"/>
    </vehicle>
    <vehicle id="tru98" type="truck" depart="686.00">
        <route edges="27803780#1 -27803780#1 179109642#1 28788370#0 28788371#0 28788368#0 28788368#1 -27490680"/>
    </vehicle>
    <vehicle id="tru102" type="truck" depart="714.00">
        <route edges="245546867 229481708#0 -229481708#0 402922224 380438949#0 380438949#1 319447428#1 319447428#2 319447428#3 401773368 327956372 327956373#0 327956373#1 4902374#0 4902374#1 4902374#2 4902374#3 4902436#0 4902436#1 -4902436#1"/>
    </vehicle>
    <vehicle id="tru104" type="truck" depart="728.00">
        <route edges="-8154721#0 -4902377#0 8154721#1 8154721#2 8154721#3"/>
    </vehicle>
    <vehicle id="tru105" type="truck" depart="735.00">
        <route edges="-4902399 4902418#2 4902418#3 4902418#4"/>
    </vehicle>
    <vehicle id="tru106" type="truck" depart="742.00">
        <route edges="221893257 511815820 -221893217#1 -221893217#0 4734472 550865716 161389764 550860118#1 550860118#2 550860118#3 249697090#0 249697090#1 249697090#2"/>
    </vehicle>
    <vehicle id="tru111" type="truck" depart="777.00">
        <route edges="27570527#4 -27570527#4 -27570527#3 -27570527#2 -4902394#2 -4902394#1 -4902394#0 28788362 549928646#0 161392062 4902374#3 4902436#0 -4902451#0 4902447 4902377#2"/>
    </vehicle>
    <vehicle id="tru113" type="truck" depart="791.00">
        <route edges="245553663#7 245553663#8 245553663#9 418990606 4902378#0 4902378#1 549917967 549345534 549815935 329013842 4559074#0 4559074#1 4559074#2 4559074#3 4559074#4 518473679 518473678"/>
    </vehicle>
    <vehicle id="tru115" type="truck" depart="805.00">
        <route edges="-27840840#2 -179109642#2 -179109642#1 27803780#1 27803780#2 340955662 -27570527#4 -27570527#3 -27570527#2 -4902394#2 -4902394#1 -4902394#0"/>
    </vehicle>
    <vehicle id="tru118" type="truck" depart="826.00">
        <route edges="548651990#0 -548651990#0"/>
    </vehicle>
    <vehicle id="tru121" type="truck" depart="847.00">
        <route edges="249871000 247833367 161392066 319447428#0 319447428#1 319447428#2 319447428#3 8148885#0 8148885#1 4559074#0 4559074#1 4559074#2 4559074#3 4559074#4 4559074#5 4559074#6 4559074#7 4559005#0 4559005#1 4559005#2 -550757841 -550741745 -550745968 -550732345 -550873590 4774365#0 -4774365#0 550873590 550732345 550745968 550741745"/>
    </vehicle>
    <vehicle id="tru122" type="truck" depart="854.00">
        <route edges="-473691589 39368522#2 -518474575 -473691590#0 39368524#2 380438949#1 319447428#1 319447428#2 319447428#3 8148885#0 8148885#1 4559074#0 4559074#1 4559074#2 4559074#3 4559074#4 4559074#5 4559074#6 4559074#7 4559005#0 4559005#1 4559005#2 -550757841 -550741745 -550745968 -550732345 -550873590 4774365#0 4774404"/>
    </vehicle>
    <vehicle id="tru125" type="truck" depart="875.00">
        <route edges="-518473675 4559074#4 4559074#5 4559074#6 4559007 4902378#0 4902474 327956373#1 4902374#0 4902374#1 4902374#2 4902374#3 4902436#0 4902436#1 -4902428 8154721#1 8154721#2 8154721#3 4902373 4902391"/>
    </vehicle>
    <vehicle id="tru126" type="truck" depart="882.00">
        <route edges="-27840838#0 -28788368#1 -28788368#0 -28788371#0 -28788370#0 -179109642#1 27803780#1 27803780#2 340955662 -27570527#4 27570528#3 27570528#4"/>
    </vehicle>
    <vehicle id="tru128" type="truck" depart="896.00">
        <route edges="-27840838#1 27840838#1 27840838#2 27803780#0 27803780#1 27803780#2 340955662 -27570527#4 -27570527#3 -27570527#2 -4902394#2 -4902394#1 -4902394#0 28788362 549928646#0 161392062 4902374#3 4902436#0 4902436#1 -4902436#1"/>
    </vehicle>
    <vehicle id="tru129" type="truck" depart="903.00">
        <route edges="-4902399 4902399 8154721#2 8154721#3 4902414#1 4902414#2 4902414#3 161389761#1 245553663#8 245553663#9 550749977 4559005#1 386223029 550735550"/>
    </vehicle>
    <vehicle id="tru130" type="truck" depart="910.00">
        <route edges="518473679 -518473675 4559074#4 4559074#5 4559074#6 4559007 4902378#0 4902474 327956373#1 327956374 549928635 549928642#0 549928642#1 549928642#2 549928642#3"/>
    </vehicle>
    <vehicle id="tru131" type="truck" depart="917.00">
        <route edges="-550867442#2 -550867442#1 -550867442#0 -229481708#2 -229481708#0 402922224 380438949#0 380438949#1 319447428#1 319447428#2 319447428#3 8148885#0 8148885#1 4559074#0 4559074#1 4559074#2 4559074#3 4559074#4 4559074#5 4559074#6 4559074#7 4559005#0 4559005#1 4559005#2 -550757841 -550741745 -550745968 -550732345 -550873590 -462566123"/>
    </vehicle>
    <vehicle id="tru132" type="truck" depart="924.00">
        <route edges="4902418#4 -4902418#4 4902431 -4902428 8154721#1 8154721#2 8154721#3 4902414#1 4902414#2 4902414#3 161389761#1 245553663#8 245553663#9 550749977 4559005#1 4559005#2 -550757841 -550741745 -550745968 -550732345 -550873590 4774365#0"/>
    </vehicle>
    <vehicle id="tru133" type="truck" depart="931.00">
        <route edges="319447428#2 319447428#3 401773368 327956372 327956373#0 327956373#1 4902374#0 4902374#1 -8154723 8154723"/>
    </vehicle>
    <vehicle id="tru135" type="truck" depart="945.00">
        <route edges="4902394#5 -4902394#5 -4902394#4 -4902394#3 -4902394#2 -4902394#1 -4902394#0 28788362 549928646#0 161392062 4902374#3 4902436#0 4902436#1 -4902428 8154721#1 8154721#2 8154721#3 4902414#1 4902414#2 4902414#3 161389761#1 161389761#2"/>
    </vehicle>
    <vehicle id="tru137" type="truck" depart="959.00">
        <route edges="-28885055#1 -28885055#0 27803780#2 340955662 -28885070#1 -28885070#0"/>
    </vehicle>
    <vehicle id="tru139" type="truck" depart="973.00">
        <route edges="-4902418#0 4902370 8154721#3 4902414#1 4902414#2 4902414#3 161389761#1 245553663#8 245553663#9 550749977 4559005#1 386223029"/>
    </vehicle>
    <vehicle id="tru140" type="truck" depart="980.00">
        <route edges="4559074#2 4559074#3 4559074#4 4559074#5 4559074#6 4559007 4902378#0 4902474 327956373#1 4902374#0 4902374#1 4902374#2 4902374#3 4902436#0 4902451#1 -4902418#4 -4902418#3 -4902418#2"/>
    </vehicle>
    <vehicle id="tru143" type="truck" depart="1001.00">
        <route edges="4902440#1 161389761#0 161389761#1 245553663#8 245553663#9 418990606 4902378#0 4902378#1 549917967 319453543#0 27490680 -28788368#1 -28788368#0"/>
    </vehicle>
    <vehicle id="tru144" type="truck" depart="1008.00">
        <route edges="161392075#0 161392075#1 161392075#2 245234799#6 161392080 329013842 4559074#0 4559074#1 4559074#2 4559074#3 4559074#4 4559074#5 4559074#6 4559074#7 4559005#0 4559005#1 4559005#2 -550757841 -550741745 -550745968 -550732345 4877453 143331549#0 143331549#1 143331549#2"/>
    </vehicle>
    <vehicle id="tru146" type="truck" depart="1022.00">
        <route edges="327764059#0 327764059#1 161392064#0 161392064#1 161392064#3 161392064#4 161392064#5 549345534 549815935 329013842 4559074#0 4559074#1 4559074#2 4559074#3 4559074#4 4559074#5 4559074#6 4559074#7 4559005#0 4559005#1 4559005#2 -550757841"/>
    </vehicle>
    <vehicle id="tru149" type="truck" depart="1043.00">
        <route edges="-27840838#2 27840838#2 27803780#0 27803780#1 27803780#2 340955662 -27570527#4 -27570527#3 -27570527#2 -27570527#1 28788360#2 549928648#0"/>
    </vehicle>
    <vehicle id="tru150" type="truck" depart="1050.00">
        <route edges="549917967 319453543#0 319453543#1 319453543#2 161392073#0 161392072 319453543#4 319453543#5 319453543#6"/>
    </vehicle>
    <vehicle id="tru155" type="truck" depart="1085.00">
        <route edges="549345534 549815935 327956372 327956373#0 327956373#1 4902374#0 4902374#1 4902374#2 4902374#3 -4902433"/>
    </vehicle>
    <vehicle id="tru156" type="truck" depart="1092.00">
        <route edges="-4902394#0 4902394#0 4902394#1 4902394#2 27570527#2 -28885040#2"/>
    </vehicle>
    <vehicle id="tru157" type="truck" depart="1099.00">
        <route edges="473684643 -473684642#0 327754983 247833369#0 247833369#1 319447428#0 319447428#1 319447428#2 319447428#3 401773368 327956372 327956373#0 327956373#1 327956374 27570528#0 -28788365#2 -28788365#1 4902394#1 549928648#1"/>
    </vehicle>
    <vehicle id="tru161" type="truck" depart="1127.00">
        <route edges="4902394#0 -4902394#0 28788362 549928646#0 549928646#1"/>
    </vehicle>
    <vehicle id="tru162" type="truck" depart="1134.00">
        <route edges="-179109642#2 179109642#2 27840840#2 -27840836 161392064#5 549345534 549815935 329013842 4559074#0 4559074#1 4559074#2 4559074#3 4559074#4 4559074#5 4559074#6 4559074#7 4559005#0 4559005#1 4559005#2 -550757841 -550741745 -550745968 -550732345 4877453 143331549#0 4877455"/>
    </vehicle>
    <vehicle id="tru163" type="truck" depart="1141.00">
        <route edges="-518473679 4559074#5 4559074#6 4559074#7 4559005#0 4559005#1 386223029 550735550"/>
    </vehicle>
    <vehicle id="tru165" type="truck" depart="1155.00">
        <route edges="4902394#0 -4902394#0 161392064#0 161392064#1 161392064#3 161392064#4 161392064#5 549345534 549815935 329013842 4559074#0 4559074#1 4559074#2 4559074#3 4559074#4 4559074#5 4559074#6 4559074#7 4559005#0 4559005#1 4559005#2 -550757841 -550741745 -550745968 -550732345 -550873590"/>
    </vehicle>
    <vehicle id="tru168" type="truck" depart="1176.00">
        <route edges="-4774365#1 -4774365#0 550873590 550732345 550745968 550741745 550757841 550725735#0 550756710#0 550756710#1 550747490 4902378#0 4902378#1 549917967 319453543#0 319453543#1 319453543#2 161392073#0 161392072 319453543#4 319453543#5 319453543#6 161389765 161392059#0 550860119#2 -550865716 -4734472 221893217#0 -548651990#1 490522132"/>
    </vehicle>
    <vehicle id="tru170" type="truck" depart="1190.00">
        <route edges="4902370 -8154721#2 -8154721#1 4902428 -4902436#1 -4902436#0 -549928646#1 -549928646#0 549928642#0 -4902453"/>
    </vehicle>
    <vehicle id="tru171" type="truck" depart="1197.00">
        <route edges="-179109642#1 27803780#1 27803780#2 340955662 -27570527#4 -27570527#3 -27570527#2 4902394#3 4902394#4 4902394#5 -4902394#5"/>
    </vehicle>
    <vehicle id="tru174" type="truck" depart="1218.00">
        <route edges="327956373#0 327956373#1 4902374#0 4902374#1 4902374#2 4902374#3 -4902433 245553663#4 245553663#5"/>
    </vehicle>
    <vehicle id="tru176" type="truck" depart="1232.00">
        <route edges="550712036#1 4806304#1 4806304#2 327754983 247833369#0 247833369#1 319447428#0 319447428#1 319447428#2 319447428#3 401773368 327956372 327956373#0 327956373#1 327956374 27570528#0 27570528#1 549928648#3 -28885070#1 -28885070#0"/>
    </vehicle>
    <vehicle id="tru179" type="truck" depart="1253.00">
        <route edges="-28788366 -27840840#2 -27840840#1 -27840840#0 28788368#1 -27490680 319453543#1 319453543#2 161392073#0 161392072 319453543#4 319453543#5 319453543#6 161389765 247833371#0 247833371#1-AddedOnRampEdge 247833371#1 161389762-AddedOnRampEdge 161389762 249870999"/>
    </vehicle>
    <vehicle id="tru180" type="truck" depart="1260.00">
        <route edges="4559118 550753286 418990606 4902378#0 4902474 327956373#1 327956374 161392064#3 161392064#4 161392064#5"/>
    </vehicle>
    <vehicle id="tru181" type="truck" depart="1267.00">
        <route edges="28885070#1 -340955662 -27803780#2 -27803780#1 179109642#1 28788370#0 28788371#0 28788371#1"/>
    </vehicle>
    <vehicle id="tru183" type="truck" depart="1281.00">
        <route edges="-4902394#4 -4902394#3 -4902394#2 -4902394#1 -4902394#0 161392064#0 161392064#1 161392064#3 161392064#4 161392064#5 549345534 549815935 329013842 4559074#0 4559074#1 4559074#2 4559074#3 4559074#4 4559074#5 4559074#6 4559074#7 4559005#0 4559005#1 4559005#2 -550757841 -550741745 -550745968 -550732345 -550873590 4774365#0 4774365#1"/>
    </vehicle>
    <vehicle id="tru186" type="truck" depart="1302.00">
        <route edges="462566123 550873590 550732345 550745968 550741745 550757841 550725735#0 550756710#0 462564634"/>
    </vehicle>
    <vehicle id="tru187" type="truck" depart="1309.00">
        <route edges="-550757841 -550741745 -550745968 -550732345 -550873590 4774365#0 -4774365#0 550873590 550732345 550745968 550741745 550757841 550725735#0 550756710#0 550756710#1 550747490 4902378#0 4902378#1 549917967 319453543#0 27490680 27840838#0 -27840838#0"/>
    </vehicle>
    <vehicle id="tru188" type="truck" depart="1316.00">